@<TRIPOS>MOLECULE
Cpd1-1
75   77    1
SMALL
USER_CHARGES


@<TRIPOS>ATOM
      1 C1         -2.8583    1.1377   -3.9989 C.3       1 UNK         0.0000 
      2 N2         -3.0691    2.3986   -0.5975 N.am      1 UNK         0.0000 
      3 O3         -6.2383    1.9472   -1.7251 O.2       1 UNK         0.0000 
      4 C4         -2.1536   -1.2626   -4.1615 C.3       1 UNK         0.0000 
      5 N5         -0.3012    0.5273    0.6296 N.am      1 UNK         0.0000 
      6 O6          1.7469    0.1507   -0.3024 O.2       1 UNK         0.0000 
      7 N7          0.3565   -0.8803    2.8801 N.am      1 UNK         0.0000 
      8 O8         -2.4079    1.8736    1.5061 O.2       1 UNK         0.0000 
      9 C9         -0.1931   -2.8419   -0.4478 C.ar      1 UNK         0.0000 
     10 O10         1.2861    0.9789    3.8130 O.2       1 UNK         0.0000 
     11 C11        -0.6256   -3.7092    1.7540 C.ar      1 UNK         0.0000 
     12 O12        -3.7248   -3.7428   -0.2137 O.3       1 UNK         0.0000 
     13 C13        -4.4409   -0.2226    0.5145 C.ar      1 UNK         0.0000 
     14 C14        -5.3776   -0.8026   -1.6371 C.ar      1 UNK         0.0000 
     15 C15        -1.4902   -3.1549   -0.8308 C.ar      1 UNK         0.0000 
     16 C16        -1.9358   -4.0263    1.3841 C.ar      1 UNK         0.0000 
     17 C17        -4.0355   -1.5348    0.6958 C.ar      1 UNK         0.0000 
     18 C18        -4.9626   -2.1223   -1.4703 C.ar      1 UNK         0.0000 
     19 C19         1.5193   -2.4136    1.3364 C.3       1 UNK         0.0000 
     20 C20        -4.4652    2.6516   -0.2855 C.3       1 UNK         0.0000 
     21 C21        -1.4020    0.1094   -2.1930 C.3       1 UNK         0.0000 
     22 C22        -0.6594    1.3616   -1.7182 C.3       1 UNK         0.0000 
     23 C23         0.2335   -3.0472    0.8692 C.ar      1 UNK         0.0000 
     24 C24        -5.0821    0.1641   -0.6684 C.ar      1 UNK         0.0000 
     25 C25        -2.3697   -3.6787    0.1124 C.ar      1 UNK         0.0000 
     26 C26        -4.2537   -2.4674   -0.3214 C.ar      1 UNK         0.0000 
     27 C27        -5.3697    1.5984   -0.9462 C.2       1 UNK         0.0000 
     28 C28         0.9232   -0.0329    0.5938 C.2       1 UNK         0.0000 
     29 C29        -2.1577    1.9815    0.3062 C.2       1 UNK         0.0000 
     30 C30        -1.7452    0.1330   -3.6889 C.3       1 UNK         0.0000 
     31 C31         0.4620    0.0786    3.8434 C.2       1 UNK         0.0000 
     32 C32         1.2941   -0.9487    1.7810 C.3       1 UNK         0.0000 
     33 C33        -0.7469    1.6348   -0.2148 C.3       1 UNK         0.0000 
     34 H34         2.2509   -0.5521    2.1346 H         1 UNK         0.0000 
     35 H35        -0.1262    2.5158    0.0077 H         1 UNK         0.0000 
     36 H36        -2.5743    2.1689   -3.7609 H         1 UNK         0.0000 
     37 H37        -3.1167    1.1200   -5.0620 H         1 UNK         0.0000 
     38 H38        -3.7651    0.8853   -3.4331 H         1 UNK         0.0000 
     39 H39        -1.3456   -1.9854   -4.0048 H         1 UNK         0.0000 
     40 H40        -3.0353   -1.6078   -3.6059 H         1 UNK         0.0000 
     41 H41        -2.4071   -1.2631   -5.2261 H         1 UNK         0.0000 
     42 H42         0.4871   -2.3817   -1.1609 H         1 UNK         0.0000 
     43 H43        -0.2900   -3.9377    2.7631 H         1 UNK         0.0000 
     44 H44        -4.2293    0.5016    1.2932 H         1 UNK         0.0000 
     45 H45        -5.8846   -0.5026   -2.5495 H         1 UNK         0.0000 
     46 H46        -1.8544   -2.9289   -1.8289 H         1 UNK         0.0000 
     47 H47        -2.6304   -4.4668    2.0921 H         1 UNK         0.0000 
     48 H48        -3.5089   -1.8268    1.5982 H         1 UNK         0.0000 
     49 H49        -5.1306   -2.8688   -2.2394 H         1 UNK         0.0000 
     50 H50         1.9435   -2.9563    2.1858 H         1 UNK         0.0000 
     51 H51         2.2606   -2.4014    0.5331 H         1 UNK         0.0000 
     52 H52        -4.7692    3.6298   -0.6621 H         1 UNK         0.0000 
     53 H53        -4.5775    2.6376    0.8016 H         1 UNK         0.0000 
     54 H54        -0.7659   -0.7549   -1.9827 H         1 UNK         0.0000 
     55 H55        -2.3300   -0.0519   -1.6192 H         1 UNK         0.0000 
     56 H56         0.3972    1.2705   -1.9772 H         1 UNK         0.0000 
     57 H57        -1.0054    2.2623   -2.2397 H         1 UNK         0.0000 
     58 H58        -0.8427    0.4342   -4.2404 H         1 UNK         0.0000 
     59 H59        -2.8024    2.4416   -1.5711 H         1 UNK         0.0000 
     60 H60        -0.8509    0.3857    1.4703 H         1 UNK         0.0000 
     61 H61        -0.3498   -1.5960    2.9957 H         1 UNK         0.0000 
     62 O62        -0.4645   -0.1149    4.7920 O.3       1 UNK         0.0000 
     63 C63        -0.5964    0.8089    5.9212 C.3       1 UNK         0.0000 
     64 C64         0.6785    0.7970    6.7585 C.3       1 UNK         0.0000 
     65 H65         0.5067    1.3685    7.6751 H         1 UNK         0.0000 
     66 H66         0.9356   -0.2294    7.0374 H         1 UNK         0.0000 
     67 H67         1.5137    1.2430    6.2175 H         1 UNK         0.0000 
     68 C68        -0.9513    2.2042    5.4170 C.3       1 UNK         0.0000 
     69 H69        -0.1223    2.6528    4.8685 H         1 UNK         0.0000 
     70 H70        -1.8300    2.1569    4.7670 H         1 UNK         0.0000 
     71 H71        -1.1914    2.8404    6.2739 H         1 UNK         0.0000 
     72 C72        -1.7584    0.2117    6.7063 C.3       1 UNK         0.0000 
     73 H73        -2.6612    0.1830    6.0900 H         1 UNK         0.0000 
     74 H74        -1.5186   -0.8050    7.0296 H         1 UNK         0.0000 
     75 H75        -1.9573    0.8226    7.5905 H         1 UNK         0.0000 
@<TRIPOS>BOND
     1    1   38 1    
     2    1   30 1    
     3    1   36 1    
     4    1   37 1    
     5    2   20 1    
     6    2   29 am   BACKBONE|DICT|INTERRES
     7    2   59 1    
     8    3   27 2    
     9    4   40 1    
    10    4   30 1    
    11    4   39 1    
    12    4   41 1    
    13    5   60 1    
    14    5   28 am   BACKBONE|DICT|INTERRES
    15    5   33 1    
    16    6   28 2    
    17    7   61 1    
    18    7   31 am   BACKBONE|DICT|INTERRES
    19    7   32 1    
    20    8   29 2    
    21    9   23 ar   
    22    9   15 ar   
    23    9   42 1    
    24   10   31 2    
    25   11   43 1    
    26   11   16 ar   
    27   11   23 ar   
    28   12   25 1    
    29   12   26 1    
    30   13   17 ar   
    31   13   24 ar   
    32   13   44 1    
    33   14   18 ar   
    34   14   24 ar   
    35   14   45 1    
    36   15   25 ar   
    37   15   46 1    
    38   16   47 1    
    39   16   25 ar   
    40   17   48 1    
    41   17   26 ar   
    42   18   26 ar   
    43   18   49 1    
    44   19   50 1    
    45   19   23 1    
    46   19   32 1    
    47   19   51 1    
    48   20   53 1    
    49   20   27 1    
    50   20   52 1    
    51   21   54 1    
    52   21   55 1    
    53   21   22 1    
    54   21   30 1    
    55   22   33 1    
    56   22   56 1    
    57   22   57 1    
    58   24   27 1    
    59   28   32 1    
    60   29   33 1    
    61   30   58 1    
    62   31   62 1    
    63   32   34 1    
    64   33   35 1    
    65   62   63 1    
    66   63   72 1    
    67   63   64 1    
    68   63   68 1    
    69   64   65 1    
    70   64   66 1    
    71   64   67 1    
    72   68   71 1    
    73   68   70 1    
    74   68   69 1    
    75   72   75 1    
    76   72   73 1    
    77   72   74 1    
@<TRIPOS>SUBSTRUCTURE
     1 UNK         1 GROUP             0       ****    0 ROOT    
@<TRIPOS>MOLECULE
Cpd1-2
75   77    1
SMALL
USER_CHARGES


@<TRIPOS>ATOM
      1 C1         -1.6470    1.3860   -5.5263 C.3       1 UNK         0.0000 
      2 N2         -2.9588    1.7222    0.2703 N.am      1 UNK         0.0000 
      3 O3         -5.9160    2.0573   -1.4802 O.2       1 UNK         0.0000 
      4 C4         -2.2771   -0.7125   -4.2996 C.3       1 UNK         0.0000 
      5 N5         -0.3380    0.6272    0.6027 N.am      1 UNK         0.0000 
      6 O6          1.6721   -0.0142   -0.2334 O.2       1 UNK         0.0000 
      7 N7          0.0942   -0.6763    2.9621 N.am      1 UNK         0.0000 
      8 O8         -1.8963    3.4953   -0.6839 O.2       1 UNK         0.0000 
      9 C9         -0.2471   -2.7685   -0.2940 C.ar      1 UNK         0.0000 
     10 O10         1.1518    1.0017    4.0904 O.2       1 UNK         0.0000 
     11 C11        -0.8013   -3.6345    1.8821 C.ar      1 UNK         0.0000 
     12 O12        -3.7378   -3.8845   -0.3148 O.3       1 UNK         0.0000 
     13 C13        -4.9092   -0.5815    0.7190 C.ar      1 UNK         0.0000 
     14 C14        -5.0567   -0.7550   -1.6907 C.ar      1 UNK         0.0000 
     15 C15        -1.4976   -3.1457   -0.7668 C.ar      1 UNK         0.0000 
     16 C16        -2.0633   -4.0176    1.4198 C.ar      1 UNK         0.0000 
     17 C17        -4.5400   -1.9151    0.7961 C.ar      1 UNK         0.0000 
     18 C18        -4.6565   -2.0900   -1.6240 C.ar      1 UNK         0.0000 
     19 C19         1.3494   -2.3191    1.6033 C.3       1 UNK         0.0000 
     20 C20        -4.2956    2.3020    0.2774 C.3       1 UNK         0.0000 
     21 C21        -1.4108    1.3035   -3.0262 C.3       1 UNK         0.0000 
     22 C22        -1.0198    0.5077   -1.7792 C.3       1 UNK         0.0000 
     23 C23         0.0967   -2.9552    1.0520 C.ar      1 UNK         0.0000 
     24 C24        -5.1250    0.0190   -0.5300 C.ar      1 UNK         0.0000 
     25 C25        -2.4163   -3.7155    0.1117 C.ar      1 UNK         0.0000 
     26 C26        -4.3444   -2.6370   -0.3834 C.ar      1 UNK         0.0000 
     27 C27        -5.2233    1.5045   -0.6497 C.2       1 UNK         0.0000 
     28 C28         0.8416   -0.0255    0.6735 C.2       1 UNK         0.0000 
     29 C29        -1.8928    2.3279   -0.3137 C.2       1 UNK         0.0000 
     30 C30        -1.3364    0.4925   -4.3249 C.3       1 UNK         0.0000 
     31 C31         0.2412    0.1943    4.0042 C.2       1 UNK         0.0000 
     32 C32         1.1203   -0.8287    1.9536 C.3       1 UNK         0.0000 
     33 C33        -0.6948    1.4140   -0.5747 C.3       1 UNK         0.0000 
     34 H34         2.0500   -0.4203    2.3609 H         1 UNK         0.0000 
     35 H35         0.1453    2.0668   -0.8299 H         1 UNK         0.0000 
     36 H36        -0.9641    2.2403   -5.5735 H         1 UNK         0.0000 
     37 H37        -1.5613    0.8286   -6.4644 H         1 UNK         0.0000 
     38 H38        -2.6703    1.7744   -5.4580 H         1 UNK         0.0000 
     39 H39        -2.0486   -1.3925   -3.4731 H         1 UNK         0.0000 
     40 H40        -3.3157   -0.3794   -4.1847 H         1 UNK         0.0000 
     41 H41        -2.2076   -1.2830   -5.2309 H         1 UNK         0.0000 
     42 H42         0.4587   -2.2853   -0.9647 H         1 UNK         0.0000 
     43 H43        -0.5307   -3.8385    2.9156 H         1 UNK         0.0000 
     44 H44        -4.9992   -0.0018    1.6338 H         1 UNK         0.0000 
     45 H45        -5.2420   -0.2860   -2.6524 H         1 UNK         0.0000 
     46 H46        -1.7879   -2.9574   -1.7960 H         1 UNK         0.0000 
     47 H47        -2.7825   -4.4939    2.0784 H         1 UNK         0.0000 
     48 H48        -4.3332   -2.3806    1.7537 H         1 UNK         0.0000 
     49 H49        -4.5161   -2.6814   -2.5231 H         1 UNK         0.0000 
     50 H50         1.6794   -2.8288    2.5126 H         1 UNK         0.0000 
     51 H51         2.1599   -2.3619    0.8717 H         1 UNK         0.0000 
     52 H52        -4.2296    3.3261   -0.0890 H         1 UNK         0.0000 
     53 H53        -4.7041    2.3173    1.2937 H         1 UNK         0.0000 
     54 H54        -2.4307    1.7019   -2.9127 H         1 UNK         0.0000 
     55 H55        -0.7478    2.1745   -3.1173 H         1 UNK         0.0000 
     56 H56        -1.8212   -0.1860   -1.4872 H         1 UNK         0.0000 
     57 H57        -0.1271   -0.0941   -1.9822 H         1 UNK         0.0000 
     58 H58        -0.3056    0.1233   -4.4266 H         1 UNK         0.0000 
     59 H59        -2.8911    0.7272    0.4498 H         1 UNK         0.0000 
     60 H60        -0.9127    0.6398    1.4360 H         1 UNK         0.0000 
     61 H61        -0.6511   -1.3598    3.0245 H         1 UNK         0.0000 
     62 O62        -0.7600    0.0347    4.8797 O.3       1 UNK         0.0000 
     63 C63        -0.8787    0.8964    6.0589 C.3       1 UNK         0.0000 
     64 C64         0.3290    0.7046    6.9707 C.3       1 UNK         0.0000 
     65 H65         0.1504    1.2324    7.9120 H         1 UNK         0.0000 
     66 H66         0.4664   -0.3577    7.1940 H         1 UNK         0.0000 
     67 H67         1.2383    1.0971    6.5147 H         1 UNK         0.0000 
     68 C68        -1.0609    2.3483    5.6280 C.3       1 UNK         0.0000 
     69 H69        -0.1557    2.7439    5.1661 H         1 UNK         0.0000 
     70 H70        -1.8924    2.4297    4.9213 H         1 UNK         0.0000 
     71 H71        -1.2989    2.9527    6.5081 H         1 UNK         0.0000 
     72 C72        -2.1442    0.3731    6.7281 C.3       1 UNK         0.0000 
     73 H73        -3.0012    0.4732    6.0563 H         1 UNK         0.0000 
     74 H74        -2.0267   -0.6804    6.9968 H         1 UNK         0.0000 
     75 H75        -2.3433    0.9462    7.6372 H         1 UNK         0.0000 
@<TRIPOS>BOND
     1    1   30 1    
     2    1   38 1    
     3    1   36 1    
     4    1   37 1    
     5    2   59 1    
     6    2   20 1    
     7    2   29 am   BACKBONE|DICT|INTERRES
     8    3   27 2    
     9    4   39 1    
    10    4   40 1    
    11    4   30 1    
    12    4   41 1    
    13    5   60 1    
    14    5   28 am   BACKBONE|DICT|INTERRES
    15    5   33 1    
    16    6   28 2    
    17    7   61 1    
    18    7   31 am   BACKBONE|DICT|INTERRES
    19    7   32 1    
    20    8   29 2    
    21    9   23 ar   
    22    9   15 ar   
    23    9   42 1    
    24   10   31 2    
    25   11   43 1    
    26   11   16 ar   
    27   11   23 ar   
    28   12   26 1    
    29   12   25 1    
    30   13   17 ar   
    31   13   44 1    
    32   13   24 ar   
    33   14   18 ar   
    34   14   24 ar   
    35   14   45 1    
    36   15   25 ar   
    37   15   46 1    
    38   16   47 1    
    39   16   25 ar   
    40   17   48 1    
    41   17   26 ar   
    42   18   26 ar   
    43   18   49 1    
    44   19   50 1    
    45   19   23 1    
    46   19   32 1    
    47   19   51 1    
    48   20   53 1    
    49   20   27 1    
    50   20   52 1    
    51   21   22 1    
    52   21   54 1    
    53   21   30 1    
    54   21   55 1    
    55   22   56 1    
    56   22   33 1    
    57   22   57 1    
    58   24   27 1    
    59   28   32 1    
    60   29   33 1    
    61   30   58 1    
    62   31   62 1    
    63   32   34 1    
    64   33   35 1    
    65   62   63 1    
    66   63   72 1    
    67   63   64 1    
    68   63   68 1    
    69   64   66 1    
    70   64   65 1    
    71   64   67 1    
    72   68   71 1    
    73   68   70 1    
    74   68   69 1    
    75   72   74 1    
    76   72   75 1    
    77   72   73 1    
@<TRIPOS>SUBSTRUCTURE
     1 UNK         1 GROUP             0       ****    0 ROOT    
@<TRIPOS>MOLECULE
Cpd1-3
75   77    1
SMALL
USER_CHARGES


@<TRIPOS>ATOM
      1 C1          0.1422    6.4685   -1.9944 C.3       1 UNK         0.0000 
      2 N2         -2.8057    2.4076   -0.0344 N.am      1 UNK         0.0000 
      3 O3         -6.0315    1.8493    0.6501 O.2       1 UNK         0.0000 
      4 C4          1.3513    5.5610    0.0131 C.3       1 UNK         0.0000 
      5 N5          0.0039    1.4056    0.9721 N.am      1 UNK         0.0000 
      6 O6          0.6482   -0.2593   -0.4430 O.2       1 UNK         0.0000 
      7 N7         -0.0884   -0.4683    3.0353 N.am      1 UNK         0.0000 
      8 O8         -1.7139    1.7594   -1.9136 O.2       1 UNK         0.0000 
      9 C9         -0.1742   -3.1685   -0.3007 C.ar      1 UNK         0.0000 
     10 O10        -2.0442   -0.4960    1.8524 O.2       1 UNK         0.0000 
     11 C11        -1.0890   -3.3758    1.9108 C.ar      1 UNK         0.0000 
     12 O12        -3.7365   -3.9657   -0.5514 O.3       1 UNK         0.0000 
     13 C13        -4.0426   -0.4062   -1.3544 C.ar      1 UNK         0.0000 
     14 C14        -5.4909   -0.9310    0.5108 C.ar      1 UNK         0.0000 
     15 C15        -1.3628   -3.6395   -0.8492 C.ar      1 UNK         0.0000 
     16 C16        -2.2969   -3.8217    1.3750 C.ar      1 UNK         0.0000 
     17 C17        -3.7482   -1.7545   -1.5023 C.ar      1 UNK         0.0000 
     18 C18        -5.1764   -2.2808    0.3870 C.ar      1 UNK         0.0000 
     19 C19         1.1214   -2.1703    1.6149 C.3       1 UNK         0.0000 
     20 C20        -4.1305    2.4920   -0.6277 C.3       1 UNK         0.0000 
     21 C21         0.5438    4.0004   -1.8245 C.3       1 UNK         0.0000 
     22 C22         0.7769    2.7315   -0.9963 C.3       1 UNK         0.0000 
     23 C23        -0.0532   -2.9459    1.0753 C.ar      1 UNK         0.0000 
     24 C24        -4.8864    0.0192   -0.3215 C.ar      1 UNK         0.0000 
     25 C25        -2.4461   -3.8655   -0.0060 C.ar      1 UNK         0.0000 
     26 C26        -4.2570   -2.6726   -0.5840 C.ar      1 UNK         0.0000 
     27 C27        -5.1105    1.4644   -0.0515 C.2       1 UNK         0.0000 
     28 C28         0.4492    0.1575    0.6914 C.2       1 UNK         0.0000 
     29 C29        -1.6806    2.1380   -0.7479 C.2       1 UNK         0.0000 
     30 C30         0.2677    5.2863   -1.0315 C.3       1 UNK         0.0000 
     31 C31        -1.4496   -0.4635    2.9126 C.2       1 UNK         0.0000 
     32 C32         0.8298   -0.6828    1.9289 C.3       1 UNK         0.0000 
     33 C33        -0.3502    2.4293   -0.0066 C.3       1 UNK         0.0000 
     34 H34         1.7841   -0.2552    2.2609 H         1 UNK         0.0000 
     35 H35        -0.5266    3.3257    0.5967 H         1 UNK         0.0000 
     36 H36        -0.6298    6.2853   -2.7488 H         1 UNK         0.0000 
     37 H37        -0.1142    7.3887   -1.4600 H         1 UNK         0.0000 
     38 H38         1.0918    6.6353   -2.5171 H         1 UNK         0.0000 
     39 H39         1.3927    4.7847    0.7840 H         1 UNK         0.0000 
     40 H40         2.3366    5.6071   -0.4675 H         1 UNK         0.0000 
     41 H41         1.1750    6.5180    0.5141 H         1 UNK         0.0000 
     42 H42         0.6441   -2.8913   -0.9573 H         1 UNK         0.0000 
     43 H43        -0.9892   -3.2807    2.9902 H         1 UNK         0.0000 
     44 H44        -3.5713    0.3094   -2.0200 H         1 UNK         0.0000 
     45 H45        -6.1551   -0.5943    1.3015 H         1 UNK         0.0000 
     46 H46        -1.4803   -3.7441   -1.9227 H         1 UNK         0.0000 
     47 H47        -3.1444   -4.0484    2.0147 H         1 UNK         0.0000 
     48 H48        -3.0645   -2.0853   -2.2749 H         1 UNK         0.0000 
     49 H49        -5.5718   -3.0175    1.0793 H         1 UNK         0.0000 
     50 H50         1.4817   -2.6138    2.5494 H         1 UNK         0.0000 
     51 H51         1.9467   -2.1966    0.8980 H         1 UNK         0.0000 
     52 H52        -4.0174    2.3637   -1.7066 H         1 UNK         0.0000 
     53 H53        -4.5566    3.4783   -0.4308 H         1 UNK         0.0000 
     54 H54         1.4390    4.1655   -2.4398 H         1 UNK         0.0000 
     55 H55        -0.2845    3.8289   -2.5220 H         1 UNK         0.0000 
     56 H56         0.8996    1.8767   -1.6632 H         1 UNK         0.0000 
     57 H57         1.6987    2.8244   -0.4113 H         1 UNK         0.0000 
     58 H58        -0.6969    5.1833   -0.5123 H         1 UNK         0.0000 
     59 H59        -2.7006    2.7406    0.9150 H         1 UNK         0.0000 
     60 H60        -0.1620    1.6221    1.9452 H         1 UNK         0.0000 
     61 H61         0.2830   -0.5002    3.9748 H         1 UNK         0.0000 
     62 O62        -2.0110   -0.3683    4.1314 O.3       1 UNK         0.0000 
     63 C63        -3.4664   -0.3354    4.2780 C.3       1 UNK         0.0000 
     64 C64        -4.0560    0.8491    3.5157 C.3       1 UNK         0.0000 
     65 H65        -5.1125    0.9532    3.7815 H         1 UNK         0.0000 
     66 H66        -3.5388    1.7732    3.7943 H         1 UNK         0.0000 
     67 H67        -3.9774    0.7011    2.4378 H         1 UNK         0.0000 
     68 C68        -4.0474   -1.6655    3.8129 C.3       1 UNK         0.0000 
     69 H69        -3.8707   -1.8075    2.7457 H         1 UNK         0.0000 
     70 H70        -3.5933   -2.4915    4.3703 H         1 UNK         0.0000 
     71 H71        -5.1267   -1.6752    3.9959 H         1 UNK         0.0000 
     72 C72        -3.6531   -0.1534    5.7790 C.3       1 UNK         0.0000 
     73 H73        -3.1811   -0.9752    6.3248 H         1 UNK         0.0000 
     74 H74        -3.2098    0.7905    6.1090 H         1 UNK         0.0000 
     75 H75        -4.7197   -0.1416    6.0180 H         1 UNK         0.0000 
@<TRIPOS>BOND
     1    1   30 1    
     2    1   37 1    
     3    1   36 1    
     4    1   38 1    
     5    2   59 1    
     6    2   20 1    
     7    2   29 am   BACKBONE|DICT|INTERRES
     8    3   27 2    
     9    4   39 1    
    10    4   41 1    
    11    4   30 1    
    12    4   40 1    
    13    5   60 1    
    14    5   28 am   BACKBONE|DICT|INTERRES
    15    5   33 1    
    16    6   28 2    
    17    7   61 1    
    18    7   31 am   BACKBONE|DICT|INTERRES
    19    7   32 1    
    20    8   29 2    
    21    9   23 ar   
    22    9   15 ar   
    23    9   42 1    
    24   10   31 2    
    25   11   43 1    
    26   11   16 ar   
    27   11   23 ar   
    28   12   26 1    
    29   12   25 1    
    30   13   24 ar   
    31   13   17 ar   
    32   13   44 1    
    33   14   45 1    
    34   14   18 ar   
    35   14   24 ar   
    36   15   25 ar   
    37   15   46 1    
    38   16   47 1    
    39   16   25 ar   
    40   17   26 ar   
    41   17   48 1    
    42   18   49 1    
    43   18   26 ar   
    44   19   32 1    
    45   19   50 1    
    46   19   23 1    
    47   19   51 1    
    48   20   27 1    
    49   20   53 1    
    50   20   52 1    
    51   21   22 1    
    52   21   30 1    
    53   21   54 1    
    54   21   55 1    
    55   22   57 1    
    56   22   33 1    
    57   22   56 1    
    58   24   27 1    
    59   28   32 1    
    60   29   33 1    
    61   30   58 1    
    62   31   62 1    
    63   32   34 1    
    64   33   35 1    
    65   62   63 1    
    66   63   72 1    
    67   63   64 1    
    68   63   68 1    
    69   64   65 1    
    70   64   66 1    
    71   64   67 1    
    72   68   71 1    
    73   68   70 1    
    74   68   69 1    
    75   72   75 1    
    76   72   73 1    
    77   72   74 1    
@<TRIPOS>SUBSTRUCTURE
     1 UNK         1 GROUP             0       ****    0 ROOT    
@<TRIPOS>MOLECULE
Cpd1-4
75   77    1
SMALL
USER_CHARGES


@<TRIPOS>ATOM
      1 C1         -0.5305   -0.7369   -4.3060 C.3       1 UNK         0.0000 
      2 N2         -3.0987    2.4736   -0.4178 N.am      1 UNK         0.0000 
      3 O3         -6.1058    2.0475   -1.7907 O.2       1 UNK         0.0000 
      4 C4         -2.6977    0.2424   -5.1042 C.3       1 UNK         0.0000 
      5 N5         -0.2958    0.4534    0.7122 N.am      1 UNK         0.0000 
      6 O6          1.5622    0.0350   -0.5273 O.2       1 UNK         0.0000 
      7 N7          0.7818   -0.7169    2.9285 N.am      1 UNK         0.0000 
      8 O8         -2.5434    1.4762    1.5428 O.2       1 UNK         0.0000 
      9 C9         -0.1085   -2.8966   -0.4492 C.ar      1 UNK         0.0000 
     10 O10         1.7734    1.2639    3.4520 O.2       1 UNK         0.0000 
     11 C11        -0.6301   -3.4566    1.8299 C.ar      1 UNK         0.0000 
     12 O12        -3.6813   -3.6767   -0.2107 O.3       1 UNK         0.0000 
     13 C13        -4.7217   -0.2537    0.5869 C.ar      1 UNK         0.0000 
     14 C14        -5.0822   -0.6672   -1.7679 C.ar      1 UNK         0.0000 
     15 C15        -1.4112   -3.2006   -0.8295 C.ar      1 UNK         0.0000 
     16 C16        -1.9428   -3.7602    1.4642 C.ar      1 UNK         0.0000 
     17 C17        -4.3222   -1.5720    0.7596 C.ar      1 UNK         0.0000 
     18 C18        -4.6595   -1.9852   -1.6081 C.ar      1 UNK         0.0000 
     19 C19         1.6161   -2.3814    1.3066 C.3       1 UNK         0.0000 
     20 C20        -4.5079    2.6847   -0.1225 C.3       1 UNK         0.0000 
     21 C21        -1.9234    0.7372   -2.7649 C.3       1 UNK         0.0000 
     22 C22        -1.4655    0.1486   -1.4300 C.3       1 UNK         0.0000 
     23 C23         0.2836   -2.9589    0.8930 C.ar      1 UNK         0.0000 
     24 C24        -5.0693    0.2195   -0.6838 C.ar      1 UNK         0.0000 
     25 C25        -2.3341   -3.5699    0.1439 C.ar      1 UNK         0.0000 
     26 C26        -4.2404   -2.4130   -0.3495 C.ar      1 UNK         0.0000 
     27 C27        -5.3417    1.6695   -0.9226 C.2       1 UNK         0.0000 
     28 C28         0.9241   -0.0749    0.5216 C.2       1 UNK         0.0000 
     29 C29        -2.2831    1.7328    0.3706 C.2       1 UNK         0.0000 
     30 C30        -1.9404   -0.3059   -3.8938 C.3       1 UNK         0.0000 
     31 C31         1.0012    0.3607    3.7326 C.2       1 UNK         0.0000 
     32 C32         1.5118   -0.8850    1.6908 C.3       1 UNK         0.0000 
     33 C33        -1.0487    1.1416   -0.3203 C.3       1 UNK         0.0000 
     34 H34         2.5241   -0.4974    1.8385 H         1 UNK         0.0000 
     35 H35        -0.4333    1.9418   -0.7522 H         1 UNK         0.0000 
     36 H36         0.0380   -1.1686   -3.4766 H         1 UNK         0.0000 
     37 H37        -0.5743   -1.4866   -5.1019 H         1 UNK         0.0000 
     38 H38         0.0310    0.1254   -4.6853 H         1 UNK         0.0000 
     39 H39        -3.7269    0.5099   -4.8428 H         1 UNK         0.0000 
     40 H40        -2.2020    1.1433   -5.4859 H         1 UNK         0.0000 
     41 H41        -2.7312   -0.4919   -5.9149 H         1 UNK         0.0000 
     42 H42         0.6045   -2.5560   -1.1961 H         1 UNK         0.0000 
     43 H43        -0.3275   -3.5921    2.8659 H         1 UNK         0.0000 
     44 H44        -4.7309    0.4084    1.4448 H         1 UNK         0.0000 
     45 H45        -5.3685   -0.3017   -2.7502 H         1 UNK         0.0000 
     46 H46        -1.7336   -3.0937   -1.8617 H         1 UNK         0.0000 
     47 H47        -2.6670   -4.0962    2.1992 H         1 UNK         0.0000 
     48 H48        -4.0224   -1.9342    1.7371 H         1 UNK         0.0000 
     49 H49        -4.6017   -2.6654   -2.4516 H         1 UNK         0.0000 
     50 H50         2.0357   -2.9153    2.1645 H         1 UNK         0.0000 
     51 H51         2.3279   -2.4553    0.4810 H         1 UNK         0.0000 
     52 H52        -4.8127    3.6883   -0.4203 H         1 UNK         0.0000 
     53 H53        -4.6534    2.5676    0.9534 H         1 UNK         0.0000 
     54 H54        -2.9399    1.1410   -2.6804 H         1 UNK         0.0000 
     55 H55        -1.2655    1.5684   -3.0632 H         1 UNK         0.0000 
     56 H56        -2.2392   -0.5183   -1.0267 H         1 UNK         0.0000 
     57 H57        -0.5802   -0.4651   -1.6054 H         1 UNK         0.0000 
     58 H58        -2.4817   -1.1886   -3.5208 H         1 UNK         0.0000 
     59 H59        -2.7899    2.6831   -1.3580 H         1 UNK         0.0000 
     60 H60        -0.7704    0.3194    1.5983 H         1 UNK         0.0000 
     61 H61         0.1230   -1.4180    3.2402 H         1 UNK         0.0000 
     62 O62         0.2512    0.2754    4.8401 O.3       1 UNK         0.0000 
     63 C63         0.2493    1.3505    5.8349 C.3       1 UNK         0.0000 
     64 C64        -0.2474    2.6463    5.2012 C.3       1 UNK         0.0000 
     65 H65        -0.3915    3.3937    5.9868 H         1 UNK         0.0000 
     66 H66         0.4675    3.0341    4.4748 H         1 UNK         0.0000 
     67 H67        -1.2090    2.4781    4.7067 H         1 UNK         0.0000 
     68 C68        -0.7472    0.8446    6.8713 C.3       1 UNK         0.0000 
     69 H69        -1.7324    0.7042    6.4178 H         1 UNK         0.0000 
     70 H70        -0.4119   -0.1082    7.2903 H         1 UNK         0.0000 
     71 H71        -0.8354    1.5718    7.6824 H         1 UNK         0.0000 
     72 C72         1.6368    1.4960    6.4520 C.3       1 UNK         0.0000 
     73 H73         1.9837    0.5290    6.8287 H         1 UNK         0.0000 
     74 H74         2.3560    1.8792    5.7277 H         1 UNK         0.0000 
     75 H75         1.5798    2.1914    7.2944 H         1 UNK         0.0000 
@<TRIPOS>BOND
     1    1   37 1    
     2    1   36 1    
     3    1   30 1    
     4    1   38 1    
     5    2   29 am   BACKBONE|DICT|INTERRES
     6    2   20 1    
     7    2   59 1    
     8    3   27 2    
     9    4   41 1    
    10    4   30 1    
    11    4   39 1    
    12    4   40 1    
    13    5   60 1    
    14    5   28 am   BACKBONE|DICT|INTERRES
    15    5   33 1    
    16    6   28 2    
    17    7   61 1    
    18    7   31 am   BACKBONE|DICT|INTERRES
    19    7   32 1    
    20    8   29 2    
    21    9   23 ar   
    22    9   15 ar   
    23    9   42 1    
    24   10   31 2    
    25   11   43 1    
    26   11   16 ar   
    27   11   23 ar   
    28   12   25 1    
    29   12   26 1    
    30   13   17 ar   
    31   13   24 ar   
    32   13   44 1    
    33   14   18 ar   
    34   14   24 ar   
    35   14   45 1    
    36   15   25 ar   
    37   15   46 1    
    38   16   47 1    
    39   16   25 ar   
    40   17   48 1    
    41   17   26 ar   
    42   18   49 1    
    43   18   26 ar   
    44   19   50 1    
    45   19   23 1    
    46   19   32 1    
    47   19   51 1    
    48   20   53 1    
    49   20   27 1    
    50   20   52 1    
    51   21   30 1    
    52   21   54 1    
    53   21   22 1    
    54   21   55 1    
    55   22   56 1    
    56   22   33 1    
    57   22   57 1    
    58   24   27 1    
    59   28   32 1    
    60   29   33 1    
    61   30   58 1    
    62   31   62 1    
    63   32   34 1    
    64   33   35 1    
    65   62   63 1    
    66   63   68 1    
    67   63   64 1    
    68   63   72 1    
    69   64   67 1    
    70   64   65 1    
    71   64   66 1    
    72   68   69 1    
    73   68   70 1    
    74   68   71 1    
    75   72   73 1    
    76   72   74 1    
    77   72   75 1    
@<TRIPOS>SUBSTRUCTURE
     1 UNK         1 GROUP             0       ****    0 ROOT    
@<TRIPOS>MOLECULE
Cpd1-5
75   77    1
SMALL
USER_CHARGES


@<TRIPOS>ATOM
      1 C1         -2.4618   -1.0644   -4.1733 C.3       1 UNK         0.0000 
      2 N2         -3.0317    2.3270   -0.6735 N.am      1 UNK         0.0000 
      3 O3         -6.2951    1.9344   -1.6667 O.2       1 UNK         0.0000 
      4 C4         -0.5430    0.4908   -4.6233 C.3       1 UNK         0.0000 
      5 N5         -0.3185    0.4547    0.6128 N.am      1 UNK         0.0000 
      6 O6          1.8480    0.4253   -0.0496 O.2       1 UNK         0.0000 
      7 N7          0.6556   -0.9021    3.0845 N.am      1 UNK         0.0000 
      8 O8         -2.3629    2.0191    1.4686 O.2       1 UNK         0.0000 
      9 C9         -0.2452   -2.8068   -0.4717 C.ar      1 UNK         0.0000 
     10 O10        -1.5787   -1.0399    2.5627 O.2       1 UNK         0.0000 
     11 C11        -0.6143   -3.7753    1.6973 C.ar      1 UNK         0.0000 
     12 O12        -3.7583   -3.7614   -0.2036 O.3       1 UNK         0.0000 
     13 C13        -5.4636   -0.8304   -1.5873 C.ar      1 UNK         0.0000 
     14 C14        -4.3843   -0.2211    0.4882 C.ar      1 UNK         0.0000 
     15 C15        -1.5455   -3.1179   -0.8420 C.ar      1 UNK         0.0000 
     16 C16        -1.9266   -4.0958    1.3408 C.ar      1 UNK         0.0000 
     17 C17        -5.0615   -2.1549   -1.4170 C.ar      1 UNK         0.0000 
     18 C18        -3.9978   -1.5370    0.6769 C.ar      1 UNK         0.0000 
     19 C19         1.5065   -2.4391    1.2732 C.3       1 UNK         0.0000 
     20 C20        -4.4169    2.6364   -0.3696 C.3       1 UNK         0.0000 
     21 C21        -1.3426    0.1030   -2.2496 C.3       1 UNK         0.0000 
     22 C22        -0.5876    1.3332   -1.7298 C.3       1 UNK         0.0000 
     23 C23         0.2109   -3.0594    0.8262 C.ar      1 UNK         0.0000 
     24 C24        -5.0909    0.1519   -0.6627 C.ar      1 UNK         0.0000 
     25 C25        -2.3958   -3.6961    0.0967 C.ar      1 UNK         0.0000 
     26 C26        -4.2895   -2.4863   -0.3059 C.ar      1 UNK         0.0000 
     27 C27        -5.3733    1.5840   -0.9515 C.2       1 UNK         0.0000 
     28 C28         0.9517    0.0300    0.7022 C.2       1 UNK         0.0000 
     29 C29        -2.1150    1.9985    0.2653 C.2       1 UNK         0.0000 
     30 C30        -1.7496    0.2113   -3.7241 C.3       1 UNK         0.0000 
     31 C31        -0.6609   -1.0787    3.3730 C.2       1 UNK         0.0000 
     32 C32         1.3510   -0.9849    1.7993 C.3       1 UNK         0.0000 
     33 C33        -0.7119    1.5869   -0.2241 C.3       1 UNK         0.0000 
     34 H34         2.3649   -0.6537    2.0346 H         1 UNK         0.0000 
     35 H35        -0.0564    2.4335    0.0262 H         1 UNK         0.0000 
     36 H36        -3.3133   -1.2948   -3.5240 H         1 UNK         0.0000 
     37 H37        -2.8289   -0.9723   -5.2003 H         1 UNK         0.0000 
     38 H38        -1.7691   -1.9151   -4.1418 H         1 UNK         0.0000 
     39 H39        -0.0601    1.4425   -4.3836 H         1 UNK         0.0000 
     40 H40         0.2032   -0.3055   -4.5093 H         1 UNK         0.0000 
     41 H41        -0.8430    0.5232   -5.6754 H         1 UNK         0.0000 
     42 H42         0.4163   -2.3112   -1.1781 H         1 UNK         0.0000 
     43 H43        -0.2604   -4.0186    2.6970 H         1 UNK         0.0000 
     44 H44        -6.0175   -0.5397   -2.4750 H         1 UNK         0.0000 
     45 H45        -4.1058    0.5161    1.2353 H         1 UNK         0.0000 
     46 H46        -1.9348   -2.8500   -1.8205 H         1 UNK         0.0000 
     47 H47        -2.6013   -4.5728    2.0449 H         1 UNK         0.0000 
     48 H48        -5.2840   -2.9119   -2.1618 H         1 UNK         0.0000 
     49 H49        -3.4025   -1.8077    1.5415 H         1 UNK         0.0000 
     50 H50         1.9633   -3.0183    2.0816 H         1 UNK         0.0000 
     51 H51         2.2203   -2.4048    0.4434 H         1 UNK         0.0000 
     52 H52        -4.6991    3.6030   -0.7914 H         1 UNK         0.0000 
     53 H53        -4.5188    2.6823    0.7181 H         1 UNK         0.0000 
     54 H54        -0.7001   -0.7758   -2.1318 H         1 UNK         0.0000 
     55 H55        -2.2392   -0.0967   -1.6415 H         1 UNK         0.0000 
     56 H56         0.4772    1.2374   -1.9533 H         1 UNK         0.0000 
     57 H57        -0.9113    2.2447   -2.2519 H         1 UNK         0.0000 
     58 H58        -2.4551    1.0518   -3.8225 H         1 UNK         0.0000 
     59 H59        -2.7741    2.2736   -1.6487 H         1 UNK         0.0000 
     60 H60        -1.0052    0.0613    1.2588 H         1 UNK         0.0000 
     61 H61         1.2618   -0.9609    3.8921 H         1 UNK         0.0000 
     62 O62        -0.8160   -1.2650    4.6903 O.3       1 UNK         0.0000 
     63 C63        -2.1487   -1.4168    5.2814 C.3       1 UNK         0.0000 
     64 C64        -1.8391   -1.5372    6.7688 C.3       1 UNK         0.0000 
     65 H65        -2.7681   -1.6774    7.3273 H         1 UNK         0.0000 
     66 H66        -1.1856   -2.3940    6.9548 H         1 UNK         0.0000 
     67 H67        -1.3458   -0.6310    7.1310 H         1 UNK         0.0000 
     68 C68        -3.0005   -0.1796    5.0109 C.3       1 UNK         0.0000 
     69 H69        -2.4488    0.7249    5.2853 H         1 UNK         0.0000 
     70 H70        -3.2961   -0.1157    3.9632 H         1 UNK         0.0000 
     71 H71        -3.9015   -0.2313    5.6289 H         1 UNK         0.0000 
     72 C72        -2.7977   -2.6955    4.7614 C.3       1 UNK         0.0000 
     73 H73        -3.0278   -2.6178    3.6977 H         1 UNK         0.0000 
     74 H74        -2.1323   -3.5497    4.9221 H         1 UNK         0.0000 
     75 H75        -3.7271   -2.8743    5.3099 H         1 UNK         0.0000 
@<TRIPOS>BOND
     1    1   37 1    
     2    1   36 1    
     3    1   38 1    
     4    1   30 1    
     5    2   59 1    
     6    2   20 1    
     7    2   29 am   BACKBONE|DICT|INTERRES
     8    3   27 2    
     9    4   41 1    
    10    4   30 1    
    11    4   40 1    
    12    4   39 1    
    13    5   28 am   BACKBONE|DICT|INTERRES
    14    5   60 1    
    15    5   33 1    
    16    6   28 2    
    17    7   32 1    
    18    7   31 am   BACKBONE|DICT|INTERRES
    19    7   61 1    
    20    8   29 2    
    21    9   15 ar   
    22    9   23 ar   
    23    9   42 1    
    24   10   31 2    
    25   11   16 ar   
    26   11   23 ar   
    27   11   43 1    
    28   12   25 1    
    29   12   26 1    
    30   13   44 1    
    31   13   17 ar   
    32   13   24 ar   
    33   14   24 ar   
    34   14   18 ar   
    35   14   45 1    
    36   15   46 1    
    37   15   25 ar   
    38   16   25 ar   
    39   16   47 1    
    40   17   48 1    
    41   17   26 ar   
    42   18   26 ar   
    43   18   49 1    
    44   19   50 1    
    45   19   23 1    
    46   19   32 1    
    47   19   51 1    
    48   20   27 1    
    49   20   52 1    
    50   20   53 1    
    51   21   55 1    
    52   21   30 1    
    53   21   54 1    
    54   21   22 1    
    55   22   33 1    
    56   22   56 1    
    57   22   57 1    
    58   24   27 1    
    59   28   32 1    
    60   29   33 1    
    61   30   58 1    
    62   31   62 1    
    63   32   34 1    
    64   33   35 1    
    65   62   63 1    
    66   63   72 1    
    67   63   64 1    
    68   63   68 1    
    69   64   65 1    
    70   64   66 1    
    71   64   67 1    
    72   68   71 1    
    73   68   70 1    
    74   68   69 1    
    75   72   73 1    
    76   72   75 1    
    77   72   74 1    
@<TRIPOS>SUBSTRUCTURE
     1 UNK         1 GROUP             0       ****    0 ROOT    
@<TRIPOS>MOLECULE
Cpd1-6
75   77    1
SMALL
USER_CHARGES


@<TRIPOS>ATOM
      1 C1         -0.8409    6.3029    2.7439 C.3       1 UNK         0.0000 
      2 N2         -3.1761    2.2277    0.1672 N.am      1 UNK         0.0000 
      3 O3         -6.6058    1.9903   -0.2463 O.2       1 UNK         0.0000 
      4 C4          0.6918    5.9589    0.7840 C.3       1 UNK         0.0000 
      5 N5         -0.0099    0.6128    0.1475 N.am      1 UNK         0.0000 
      6 O6          0.9383    0.1343    2.1509 O.2       1 UNK         0.0000 
      7 N7          3.1669   -0.6220    0.3220 N.am      1 UNK         0.0000 
      8 O8         -1.7216    1.8847   -1.5482 O.2       1 UNK         0.0000 
      9 C9         -0.0891   -3.7133   -0.4060 C.ar      1 UNK         0.0000 
     10 O10         4.8159    0.8579   -0.2031 O.2       1 UNK         0.0000 
     11 C11        -0.7377   -2.6652    1.6631 C.ar      1 UNK         0.0000 
     12 O12        -3.7482   -3.7408   -0.1230 O.3       1 UNK         0.0000 
     13 C13        -4.0584   -0.2994   -1.3201 C.ar      1 UNK         0.0000 
     14 C14        -5.8675   -0.7789    0.2133 C.ar      1 UNK         0.0000 
     15 C15        -1.4199   -4.0404   -0.6713 C.ar      1 UNK         0.0000 
     16 C16        -2.0678   -2.9799    1.4095 C.ar      1 UNK         0.0000 
     17 C17        -3.6376   -1.6153   -1.2395 C.ar      1 UNK         0.0000 
     18 C18        -5.4356   -2.0996    0.3217 C.ar      1 UNK         0.0000 
     19 C19         1.6578   -2.4433    0.9033 C.3       1 UNK         0.0000 
     20 C20        -4.3268    2.5824   -0.6444 C.3       1 UNK         0.0000 
     21 C21        -0.8374    4.0886    1.5616 C.3       1 UNK         0.0000 
     22 C22        -0.0415    2.9744    0.8828 C.3       1 UNK         0.0000 
     23 C23         0.2606   -2.9849    0.7351 C.ar      1 UNK         0.0000 
     24 C24        -5.1518    0.1382   -0.5629 C.ar      1 UNK         0.0000 
     25 C25        -2.3996   -3.6210    0.2186 C.ar      1 UNK         0.0000 
     26 C26        -4.2889   -2.4892   -0.3649 C.ar      1 UNK         0.0000 
     27 C27        -5.4826    1.5854   -0.4844 C.2       1 UNK         0.0000 
     28 C28         0.8639   -0.0458    0.9358 C.2       1 UNK         0.0000 
     29 C29        -1.9622    1.9278   -0.3423 C.2       1 UNK         0.0000 
     30 C30         0.0173    5.2903    1.9838 C.3       1 UNK         0.0000 
     31 C31         3.6832    0.4320   -0.3700 C.2       1 UNK         0.0000 
     32 C32         1.7847   -1.0631    0.2366 C.3       1 UNK         0.0000 
     33 C33        -0.8489    1.6787    0.6728 C.3       1 UNK         0.0000 
     34 H34         1.5130   -1.1467   -0.8200 H         1 UNK         0.0000 
     35 H35        -1.2599    1.3428    1.6307 H         1 UNK         0.0000 
     36 H36        -1.3184    5.8450    3.6161 H         1 UNK         0.0000 
     37 H37        -0.2382    7.1484    3.0897 H         1 UNK         0.0000 
     38 H38        -1.6311    6.6968    2.0935 H         1 UNK         0.0000 
     39 H39         1.3937    5.2896    0.2779 H         1 UNK         0.0000 
     40 H40        -0.0618    6.2753    0.0521 H         1 UNK         0.0000 
     41 H41         1.2494    6.8467    1.0984 H         1 UNK         0.0000 
     42 H42         0.6805   -3.9909   -1.1217 H         1 UNK         0.0000 
     43 H43        -0.4740   -2.1233    2.5672 H         1 UNK         0.0000 
     44 H44        -3.5090    0.3919   -1.9517 H         1 UNK         0.0000 
     45 H45        -6.7223   -0.4350    0.7877 H         1 UNK         0.0000 
     46 H46        -1.7047   -4.5530   -1.5845 H         1 UNK         0.0000 
     47 H47        -2.8555   -2.6816    2.0950 H         1 UNK         0.0000 
     48 H48        -2.7677   -1.9510   -1.7934 H         1 UNK         0.0000 
     49 H49        -5.9313   -2.8049    0.9800 H         1 UNK         0.0000 
     50 H50         1.9070   -2.3400    1.9648 H         1 UNK         0.0000 
     51 H51         2.3918   -3.1076    0.4377 H         1 UNK         0.0000 
     52 H52        -4.0001    2.6115   -1.6883 H         1 UNK         0.0000 
     53 H53        -4.7040    3.5693   -0.3681 H         1 UNK         0.0000 
     54 H54        -1.6343    4.4457    0.8937 H         1 UNK         0.0000 
     55 H55        -1.3331    3.6808    2.4542 H         1 UNK         0.0000 
     56 H56         0.3252    3.2983   -0.0986 H         1 UNK         0.0000 
     57 H57         0.8312    2.7128    1.4932 H         1 UNK         0.0000 
     58 H58         0.8009    4.9233    2.6621 H         1 UNK         0.0000 
     59 H59        -3.2862    2.2348    1.1730 H         1 UNK         0.0000 
     60 H60         0.0623    0.5391   -0.8617 H         1 UNK         0.0000 
     61 H61         3.7265   -0.9316    1.1056 H         1 UNK         0.0000 
     62 O62         2.7894    0.9035   -1.2509 O.3       1 UNK         0.0000 
     63 C63         3.1039    2.0359   -2.1240 C.3       1 UNK         0.0000 
     64 C64         1.7980    2.2391   -2.8834 C.3       1 UNK         0.0000 
     65 H65         1.9092    3.0596   -3.5971 H         1 UNK         0.0000 
     66 H66         1.5305    1.3312   -3.4321 H         1 UNK         0.0000 
     67 H67         0.9825    2.4838   -2.1953 H         1 UNK         0.0000 
     68 C68         3.4363    3.2662   -1.2853 C.3       1 UNK         0.0000 
     69 H69         2.6705    3.4094   -0.5165 H         1 UNK         0.0000 
     70 H70         4.4092    3.1707   -0.8027 H         1 UNK         0.0000 
     71 H71         3.4435    4.1485   -1.9320 H         1 UNK         0.0000 
     72 C72         4.2313    1.6586   -3.0786 C.3       1 UNK         0.0000 
     73 H73         5.1672    1.5007   -2.5412 H         1 UNK         0.0000 
     74 H74         3.9715    0.7491   -3.6285 H         1 UNK         0.0000 
     75 H75         4.3723    2.4683   -3.8005 H         1 UNK         0.0000 
@<TRIPOS>BOND
     1    1   30 1    
     2    1   38 1    
     3    1   36 1    
     4    1   37 1    
     5    2   29 am   BACKBONE|DICT|INTERRES
     6    2   20 1    
     7    2   59 1    
     8    3   27 2    
     9    4   39 1    
    10    4   40 1    
    11    4   30 1    
    12    4   41 1    
    13    5   60 1    
    14    5   28 am   BACKBONE|DICT|INTERRES
    15    5   33 1    
    16    6   28 2    
    17    7   32 1    
    18    7   31 am   BACKBONE|DICT|INTERRES
    19    7   61 1    
    20    8   29 2    
    21    9   15 ar   
    22    9   42 1    
    23    9   23 ar   
    24   10   31 2    
    25   11   16 ar   
    26   11   23 ar   
    27   11   43 1    
    28   12   26 1    
    29   12   25 1    
    30   13   44 1    
    31   13   17 ar   
    32   13   24 ar   
    33   14   24 ar   
    34   14   18 ar   
    35   14   45 1    
    36   15   46 1    
    37   15   25 ar   
    38   16   25 ar   
    39   16   47 1    
    40   17   48 1    
    41   17   26 ar   
    42   18   26 ar   
    43   18   49 1    
    44   19   23 1    
    45   19   51 1    
    46   19   32 1    
    47   19   50 1    
    48   20   52 1    
    49   20   27 1    
    50   20   53 1    
    51   21   22 1    
    52   21   54 1    
    53   21   30 1    
    54   21   55 1    
    55   22   33 1    
    56   22   56 1    
    57   22   57 1    
    58   24   27 1    
    59   28   32 1    
    60   29   33 1    
    61   30   58 1    
    62   31   62 1    
    63   32   34 1    
    64   33   35 1    
    65   62   63 1    
    66   63   72 1    
    67   63   64 1    
    68   63   68 1    
    69   64   66 1    
    70   64   65 1    
    71   64   67 1    
    72   68   71 1    
    73   68   69 1    
    74   68   70 1    
    75   72   74 1    
    76   72   75 1    
    77   72   73 1    
@<TRIPOS>SUBSTRUCTURE
     1 UNK         1 GROUP             0       ****    0 ROOT    
@<TRIPOS>MOLECULE
Cpd1-7
75   77    1
SMALL
USER_CHARGES


@<TRIPOS>ATOM
      1 C1         -0.6454    6.7192   -0.7036 C.3       1 UNK         0.0000 
      2 N2         -3.0569    2.3163    0.6899 N.am      1 UNK         0.0000 
      3 O3         -5.5247    1.9272   -1.8202 O.2       1 UNK         0.0000 
      4 C4          0.8123    5.6103    1.0174 C.3       1 UNK         0.0000 
      5 N5         -0.1166    1.2086    1.2653 N.am      1 UNK         0.0000 
      6 O6          0.5658   -0.0761   -0.4863 O.2       1 UNK         0.0000 
      7 N7          0.5190   -0.8505    3.0422 N.am      1 UNK         0.0000 
      8 O8         -2.1211    1.9512   -1.3273 O.2       1 UNK         0.0000 
      9 C9         -0.3683   -2.9062   -0.5517 C.ar      1 UNK         0.0000 
     10 O10        -1.7064   -0.9732    2.5002 O.2       1 UNK         0.0000 
     11 C11        -0.6400   -3.7168    1.6954 C.ar      1 UNK         0.0000 
     12 O12        -3.8350   -3.9492   -0.0952 O.3       1 UNK         0.0000 
     13 C13        -4.4210   -0.4260    0.6885 C.ar      1 UNK         0.0000 
     14 C14        -5.0255   -0.8399   -1.6169 C.ar      1 UNK         0.0000 
     15 C15        -1.6527   -3.3250   -0.8658 C.ar      1 UNK         0.0000 
     16 C16        -1.9392   -4.1370    1.3969 C.ar      1 UNK         0.0000 
     17 C17        -4.1963   -1.7820    0.8698 C.ar      1 UNK         0.0000 
     18 C18        -4.7862   -2.1997   -1.4479 C.ar      1 UNK         0.0000 
     19 C19         1.3742   -2.2741    1.1414 C.3       1 UNK         0.0000 
     20 C20        -4.3894    2.5470    0.1561 C.3       1 UNK         0.0000 
     21 C21         0.0042    4.3187   -1.0172 C.3       1 UNK         0.0000 
     22 C22         0.4067    2.9498   -0.4548 C.3       1 UNK         0.0000 
     23 C23         0.1202   -3.0146    0.7566 C.ar      1 UNK         0.0000 
     24 C24        -4.7979    0.0611   -0.5679 C.ar      1 UNK         0.0000 
     25 C25        -2.4565   -3.8564    0.1402 C.ar      1 UNK         0.0000 
     26 C26        -4.3171   -2.6485   -0.2150 C.ar      1 UNK         0.0000 
     27 C27        -4.9331    1.5163   -0.8360 C.2       1 UNK         0.0000 
     28 C28         0.4544    0.1106    0.7201 C.2       1 UNK         0.0000 
     29 C29        -1.9842    2.1720   -0.1289 C.2       1 UNK         0.0000 
     30 C30        -0.3254    5.4070    0.0147 C.3       1 UNK         0.0000 
     31 C31        -0.8080   -1.0294    3.3203 C.2       1 UNK         0.0000 
     32 C32         1.1214   -0.8586    1.7181 C.3       1 UNK         0.0000 
     33 C33        -0.6051    2.3817    0.5430 C.3       1 UNK         0.0000 
     34 H34         2.1147   -0.4160    1.8648 H         1 UNK         0.0000 
     35 H35        -0.7604    3.1275    1.3288 H         1 UNK         0.0000 
     36 H36        -1.4606    6.5887   -1.4226 H         1 UNK         0.0000 
     37 H37        -0.9387    7.4979    0.0073 H         1 UNK         0.0000 
     38 H38         0.2343    7.0768   -1.2520 H         1 UNK         0.0000 
     39 H39         1.0005    4.7166    1.6213 H         1 UNK         0.0000 
     40 H40         1.7414    5.8574    0.4889 H         1 UNK         0.0000 
     41 H41         0.5847    6.4328    1.7027 H         1 UNK         0.0000 
     42 H42         0.2352   -2.4103   -1.3039 H         1 UNK         0.0000 
     43 H43        -0.2531   -3.8641    2.7021 H         1 UNK         0.0000 
     44 H44        -4.2610    0.2488    1.5220 H         1 UNK         0.0000 
     45 H45        -5.3372   -0.4541   -2.5821 H         1 UNK         0.0000 
     46 H46        -2.0690   -3.1575   -1.8544 H         1 UNK         0.0000 
     47 H47        -2.5719   -4.5923    2.1525 H         1 UNK         0.0000 
     48 H48        -3.8215   -2.1495    1.8175 H         1 UNK         0.0000 
     49 H49        -4.8842   -2.8985   -2.2721 H         1 UNK         0.0000 
     50 H50         1.9350   -2.8227    1.9051 H         1 UNK         0.0000 
     51 H51         2.0241   -2.1587    0.2699 H         1 UNK         0.0000 
     52 H52        -4.4325    3.5078   -0.3670 H         1 UNK         0.0000 
     53 H53        -5.0821    2.5902    1.0022 H         1 UNK         0.0000 
     54 H54         0.8331    4.6795   -1.6414 H         1 UNK         0.0000 
     55 H55        -0.8554    4.1939   -1.6865 H         1 UNK         0.0000 
     56 H56         0.5336    2.2426   -1.2755 H         1 UNK         0.0000 
     57 H57         1.3673    3.0199    0.0682 H         1 UNK         0.0000 
     58 H58        -1.2285    5.1093    0.5688 H         1 UNK         0.0000 
     59 H59        -2.8984    2.5646    1.6570 H         1 UNK         0.0000 
     60 H60        -0.1798    1.2357    2.2732 H         1 UNK         0.0000 
     61 H61         1.1459   -0.9771    3.8255 H         1 UNK         0.0000 
     62 O62        -0.9556   -1.2181    4.6439 O.3       1 UNK         0.0000 
     63 C63        -2.2733   -1.4312    5.2397 C.3       1 UNK         0.0000 
     64 C64        -2.8393   -2.7568    4.7440 C.3       1 UNK         0.0000 
     65 H65        -3.7901   -2.9587    5.2456 H         1 UNK         0.0000 
     66 H66        -3.0092   -2.7253    3.6671 H         1 UNK         0.0000 
     67 H67        -2.1461   -3.5733    4.9699 H         1 UNK         0.0000 
     68 C68        -1.9623   -1.5008    6.7302 C.3       1 UNK         0.0000 
     69 H69        -1.2482   -2.3035    6.9333 H         1 UNK         0.0000 
     70 H70        -1.5383   -0.5543    7.0772 H         1 UNK         0.0000 
     71 H71        -2.8806   -1.6991    7.2888 H         1 UNK         0.0000 
     72 C72        -3.2010   -0.2555    4.9439 C.3       1 UNK         0.0000 
     73 H73        -2.7019    0.6877    5.1871 H         1 UNK         0.0000 
     74 H74        -3.5061   -0.2395    3.8973 H         1 UNK         0.0000 
     75 H75        -4.0925   -0.3427    5.5717 H         1 UNK         0.0000 
@<TRIPOS>BOND
     1    1   36 1    
     2    1   37 1    
     3    1   30 1    
     4    1   38 1    
     5    2   59 1    
     6    2   20 1    
     7    2   29 am   BACKBONE|DICT|INTERRES
     8    3   27 2    
     9    4   30 1    
    10    4   41 1    
    11    4   39 1    
    12    4   40 1    
    13    5   33 1    
    14    5   60 1    
    15    5   28 am   BACKBONE|DICT|INTERRES
    16    6   28 2    
    17    7   61 1    
    18    7   31 am   BACKBONE|DICT|INTERRES
    19    7   32 1    
    20    8   29 2    
    21    9   23 ar   
    22    9   15 ar   
    23    9   42 1    
    24   10   31 2    
    25   11   43 1    
    26   11   16 ar   
    27   11   23 ar   
    28   12   26 1    
    29   12   25 1    
    30   13   44 1    
    31   13   17 ar   
    32   13   24 ar   
    33   14   24 ar   
    34   14   18 ar   
    35   14   45 1    
    36   15   25 ar   
    37   15   46 1    
    38   16   47 1    
    39   16   25 ar   
    40   17   48 1    
    41   17   26 ar   
    42   18   26 ar   
    43   18   49 1    
    44   19   23 1    
    45   19   32 1    
    46   19   50 1    
    47   19   51 1    
    48   20   52 1    
    49   20   53 1    
    50   20   27 1    
    51   21   55 1    
    52   21   30 1    
    53   21   22 1    
    54   21   54 1    
    55   22   33 1    
    56   22   56 1    
    57   22   57 1    
    58   24   27 1    
    59   28   32 1    
    60   29   33 1    
    61   30   58 1    
    62   31   62 1    
    63   32   34 1    
    64   33   35 1    
    65   62   63 1    
    66   63   68 1    
    67   63   72 1    
    68   63   64 1    
    69   64   65 1    
    70   64   66 1    
    71   64   67 1    
    72   68   70 1    
    73   68   71 1    
    74   68   69 1    
    75   72   73 1    
    76   72   75 1    
    77   72   74 1    
@<TRIPOS>SUBSTRUCTURE
     1 UNK         1 GROUP             0       ****    0 ROOT    
@<TRIPOS>MOLECULE
Cpd1-8-MEC
75   77    1
SMALL
USER_CHARGES


@<TRIPOS>ATOM
      1 C1          1.4762    5.6929   -0.8431 C.3       1 UNK         0.0000 
      2 N2         -3.1855    2.2715    0.1152 N.am      1 UNK         0.0000 
      3 O3         -6.5815    2.0382   -0.2060 O.2       1 UNK         0.0000 
      4 C4          2.3579    4.5130    1.1880 C.3       1 UNK         0.0000 
      5 N5          0.0005    0.5752    0.2126 N.am      1 UNK         0.0000 
      6 O6          0.9922    0.1589    2.2093 O.2       1 UNK         0.0000 
      7 N7          3.1985   -0.5132    0.5278 N.am      1 UNK         0.0000 
      8 O8         -1.7703    1.5569   -1.5177 O.2       1 UNK         0.0000 
      9 C9         -0.0779   -3.6266   -0.4604 C.ar      1 UNK         0.0000 
     10 O10         4.0649   -1.5018   -1.3345 O.2       1 UNK         0.0000 
     11 C11        -0.7170   -2.6546    1.6475 C.ar      1 UNK         0.0000 
     12 O12        -3.7380   -3.7095   -0.1413 O.3       1 UNK         0.0000 
     13 C13        -5.8002   -0.7197    0.3147 C.ar      1 UNK         0.0000 
     14 C14        -4.1746   -0.3173   -1.4320 C.ar      1 UNK         0.0000 
     15 C15        -1.4109   -3.9428   -0.7301 C.ar      1 UNK         0.0000 
     16 C16        -2.0489   -2.9578    1.3899 C.ar      1 UNK         0.0000 
     17 C17        -5.3635   -2.0385    0.4263 C.ar      1 UNK         0.0000 
     18 C18        -3.7521   -1.6336   -1.3458 C.ar      1 UNK         0.0000 
     19 C19         1.6834   -2.4381    0.9127 C.3       1 UNK         0.0000 
     20 C20        -4.3153    2.5861   -0.7419 C.3       1 UNK         0.0000 
     21 C21         0.3023    3.6334   -0.0199 C.3       1 UNK         0.0000 
     22 C22        -0.2900    2.8592    1.1560 C.3       1 UNK         0.0000 
     23 C23         0.2802   -2.9494    0.7092 C.ar      1 UNK         0.0000 
     24 C24        -5.1716    0.1599   -0.5730 C.ar      1 UNK         0.0000 
     25 C25        -2.3868   -3.5647    0.1827 C.ar      1 UNK         0.0000 
     26 C26        -4.3037   -2.4648   -0.3698 C.ar      1 UNK         0.0000 
     27 C27        -5.4813    1.6145   -0.5078 C.2       1 UNK         0.0000 
     28 C28         0.9044   -0.0379    0.9959 C.2       1 UNK         0.0000 
     29 C29        -2.0124    1.7704   -0.3319 C.2       1 UNK         0.0000 
     30 C30         1.1000    4.8768    0.3950 C.3       1 UNK         0.0000 
     31 C31         4.2190   -0.8803   -0.2936 C.2       1 UNK         0.0000 
     32 C32         1.8569   -1.0231    0.3162 C.3       1 UNK         0.0000 
     33 C33        -0.9567    1.5288    0.7476 C.3       1 UNK         0.0000 
     34 H34         1.6780   -1.0573   -0.7622 H         1 UNK         0.0000 
     35 H35        -1.4254    1.0813    1.6318 H         1 UNK         0.0000 
     36 H36         0.5878    5.9894   -1.4099 H         1 UNK         0.0000 
     37 H37         2.0234    6.5997   -0.5670 H         1 UNK         0.0000 
     38 H38         2.1186    5.1014   -1.5068 H         1 UNK         0.0000 
     39 H39         2.1265    4.0080    2.1299 H         1 UNK         0.0000 
     40 H40         2.9987    3.8478    0.5957 H         1 UNK         0.0000 
     41 H41         2.9366    5.4107    1.4277 H         1 UNK         0.0000 
     42 H42         0.6884   -3.8808   -1.1885 H         1 UNK         0.0000 
     43 H43        -0.4490   -2.1480    2.5710 H         1 UNK         0.0000 
     44 H44        -6.5835   -0.3465    0.9675 H         1 UNK         0.0000 
     45 H45        -3.6953    0.3435   -2.1455 H         1 UNK         0.0000 
     46 H46        -1.6997   -4.4276   -1.6572 H         1 UNK         0.0000 
     47 H47        -2.8321   -2.6880    2.0922 H         1 UNK         0.0000 
     48 H48        -5.7847   -2.7135    1.1637 H         1 UNK         0.0000 
     49 H49        -2.9519   -2.0009   -1.9795 H         1 UNK         0.0000 
     50 H50         1.9249   -2.3835    1.9791 H         1 UNK         0.0000 
     51 H51         2.4155   -3.0895    0.4256 H         1 UNK         0.0000 
     52 H52        -3.9735    2.5326   -1.7791 H         1 UNK         0.0000 
     53 H53        -4.6778    3.5957   -0.5405 H         1 UNK         0.0000 
     54 H54         0.9608    2.9728   -0.6029 H         1 UNK         0.0000 
     55 H55        -0.5067    3.9431   -0.6949 H         1 UNK         0.0000 
     56 H56         0.4810    2.6043    1.8876 H         1 UNK         0.0000 
     57 H57        -1.0339    3.4768    1.6738 H         1 UNK         0.0000 
     58 H58         0.4541    5.4974    1.0332 H         1 UNK         0.0000 
     59 H59        -3.3056    2.3938    1.1128 H         1 UNK         0.0000 
     60 H60        -0.0255    0.4090   -0.7873 H         1 UNK         0.0000 
     61 H61         3.4286   -0.1517    1.4453 H         1 UNK         0.0000 
     62 O62         5.3891   -0.4420    0.1957 O.3       1 UNK         0.0000 
     63 C63         6.6443   -0.6822   -0.5174 C.3       1 UNK         0.0000 
     64 C64         6.9106   -2.1810   -0.6196 C.3       1 UNK         0.0000 
     65 H65         7.9184   -2.3372   -1.0152 H         1 UNK         0.0000 
     66 H66         6.8567   -2.6405    0.3720 H         1 UNK         0.0000 
     67 H67         6.1940   -2.6684   -1.2814 H         1 UNK         0.0000 
     68 C68         6.6119   -0.0011   -1.8823 C.3       1 UNK         0.0000 
     69 H69         5.8982   -0.4833   -2.5510 H         1 UNK         0.0000 
     70 H70         6.3447    1.0540   -1.7693 H         1 UNK         0.0000 
     71 H71         7.6081   -0.0559   -2.3307 H         1 UNK         0.0000 
     72 C72         7.6750   -0.0167    0.3872 C.3       1 UNK         0.0000 
     73 H73         7.4594    1.0503    0.4918 H         1 UNK         0.0000 
     74 H74         7.6672   -0.4774    1.3790 H         1 UNK         0.0000 
     75 H75         8.6726   -0.1317   -0.0444 H         1 UNK         0.0000 
@<TRIPOS>BOND
     1    1   37 1    
     2    1   30 1    
     3    1   36 1    
     4    1   38 1    
     5    2   59 1    
     6    2   20 1    
     7    2   29 am   BACKBONE|DICT|INTERRES
     8    3   27 2    
     9    4   41 1    
    10    4   39 1    
    11    4   30 1    
    12    4   40 1    
    13    5   33 1    
    14    5   28 am   BACKBONE|DICT|INTERRES
    15    5   60 1    
    16    6   28 2    
    17    7   61 1    
    18    7   31 am   BACKBONE|DICT|INTERRES
    19    7   32 1    
    20    8   29 2    
    21    9   23 ar   
    22    9   15 ar   
    23    9   42 1    
    24   10   31 2    
    25   11   43 1    
    26   11   16 ar   
    27   11   23 ar   
    28   12   25 1    
    29   12   26 1    
    30   13   17 ar   
    31   13   44 1    
    32   13   24 ar   
    33   14   18 ar   
    34   14   24 ar   
    35   14   45 1    
    36   15   25 ar   
    37   15   46 1    
    38   16   47 1    
    39   16   25 ar   
    40   17   48 1    
    41   17   26 ar   
    42   18   26 ar   
    43   18   49 1    
    44   19   50 1    
    45   19   23 1    
    46   19   32 1    
    47   19   51 1    
    48   20   53 1    
    49   20   27 1    
    50   20   52 1    
    51   21   30 1    
    52   21   22 1    
    53   21   54 1    
    54   21   55 1    
    55   22   57 1    
    56   22   56 1    
    57   22   33 1    
    58   24   27 1    
    59   28   32 1    
    60   29   33 1    
    61   30   58 1    
    62   31   62 1    
    63   32   34 1    
    64   33   35 1    
    65   62   63 1    
    66   63   72 1    
    67   63   64 1    
    68   63   68 1    
    69   64   66 1    
    70   64   65 1    
    71   64   67 1    
    72   68   70 1    
    73   68   69 1    
    74   68   71 1    
    75   72   73 1    
    76   72   74 1    
    77   72   75 1    
@<TRIPOS>SUBSTRUCTURE
     1 UNK         1 GROUP             0       ****    0 ROOT    
@<TRIPOS>MOLECULE
Cpd1-9
75   77    1
SMALL
USER_CHARGES


@<TRIPOS>ATOM
      1 C1          2.9595    3.9067   -0.8640 C.3       1 UNK         0.0000 
      2 N2         -3.0581    2.4941   -0.2615 N.am      1 UNK         0.0000 
      3 O3         -6.1690    2.1413    0.1422 O.2       1 UNK         0.0000 
      4 C4          3.2271    4.8571    1.4443 C.3       1 UNK         0.0000 
      5 N5         -0.3297    0.7879    1.2727 N.am      1 UNK         0.0000 
      6 O6          1.4433    0.2381   -0.0739 O.2       1 UNK         0.0000 
      7 N7          0.4106   -1.0237    3.1757 N.am      1 UNK         0.0000 
      8 O8         -1.8487    0.8327   -1.2346 O.2       1 UNK         0.0000 
      9 C9         -0.2402   -2.6078   -0.4437 C.ar      1 UNK         0.0000 
     10 O10        -0.2106   -0.3887    5.2679 O.2       1 UNK         0.0000 
     11 C11        -0.6756   -3.6777    1.6665 C.ar      1 UNK         0.0000 
     12 O12        -3.7181   -3.7785   -0.3918 O.3       1 UNK         0.0000 
     13 C13        -5.1082   -0.5673    0.6837 C.ar      1 UNK         0.0000 
     14 C14        -4.7842   -0.5418   -1.7162 C.ar      1 UNK         0.0000 
     15 C15        -1.5084   -2.9561   -0.8878 C.ar      1 UNK         0.0000 
     16 C16        -1.9628   -4.0167    1.2398 C.ar      1 UNK         0.0000 
     17 C17        -4.7031   -1.8973    0.7263 C.ar      1 UNK         0.0000 
     18 C18        -4.4370   -1.8879   -1.6886 C.ar      1 UNK         0.0000 
     19 C19         1.4659   -2.3376    1.3787 C.3       1 UNK         0.0000 
     20 C20        -4.1922    2.4458   -1.1724 C.3       1 UNK         0.0000 
     21 C21         1.2863    3.3375    0.9583 C.3       1 UNK         0.0000 
     22 C22         0.1951    2.8905   -0.0134 C.3       1 UNK         0.0000 
     23 C23         0.1767   -2.9194    0.8563 C.ar      1 UNK         0.0000 
     24 C24        -5.0919    0.1290   -0.5290 C.ar      1 UNK         0.0000 
     25 C25        -2.3817   -3.6080   -0.0192 C.ar      1 UNK         0.0000 
     26 C26        -4.3251   -2.5277   -0.4572 C.ar      1 UNK         0.0000 
     27 C27        -5.2851    1.6081   -0.5013 C.2       1 UNK         0.0000 
     28 C28         0.7773    0.0849    0.9465 C.2       1 UNK         0.0000 
     29 C29        -1.9698    1.6872   -0.3665 C.2       1 UNK         0.0000 
     30 C30         2.2237    4.4061    0.3816 C.3       1 UNK         0.0000 
     31 C31         0.5127   -0.2470    4.2935 C.2       1 UNK         0.0000 
     32 C32         1.2568   -0.9399    2.0012 C.3       1 UNK         0.0000 
     33 C33        -0.8618    1.9964    0.6517 C.3       1 UNK         0.0000 
     34 H34         2.2350   -0.5640    2.3153 H         1 UNK         0.0000 
     35 H35        -1.3023    2.5671    1.4777 H         1 UNK         0.0000 
     36 H36         2.2741    3.6797   -1.6854 H         1 UNK         0.0000 
     37 H37         3.6698    4.6591   -1.2213 H         1 UNK         0.0000 
     38 H38         3.5228    2.9945   -0.6310 H         1 UNK         0.0000 
     39 H39         2.7199    5.2233    2.3435 H         1 UNK         0.0000 
     40 H40         3.8734    4.0205    1.7378 H         1 UNK         0.0000 
     41 H41         3.8688    5.6585    1.0650 H         1 UNK         0.0000 
     42 H42         0.4240   -2.0497   -1.0976 H         1 UNK         0.0000 
     43 H43        -0.3481   -3.9872    2.6567 H         1 UNK         0.0000 
     44 H44        -5.3706   -0.0435    1.5979 H         1 UNK         0.0000 
     45 H45        -4.7893   -0.0141   -2.6652 H         1 UNK         0.0000 
     46 H46        -1.8410   -2.6743   -1.8809 H         1 UNK         0.0000 
     47 H47        -2.6485   -4.5514    1.8890 H         1 UNK         0.0000 
     48 H48        -4.6204   -2.4310    1.6677 H         1 UNK         0.0000 
     49 H49        -4.1741   -2.4191   -2.5971 H         1 UNK         0.0000 
     50 H50         1.9086   -2.9788    2.1464 H         1 UNK         0.0000 
     51 H51         2.1883   -2.2278    0.5668 H         1 UNK         0.0000 
     52 H52        -3.8542    2.0028   -2.1107 H         1 UNK         0.0000 
     53 H53        -4.5657    3.4563   -1.3434 H         1 UNK         0.0000 
     54 H54         0.8143    3.7348    1.8687 H         1 UNK         0.0000 
     55 H55         1.8884    2.4702    1.2639 H         1 UNK         0.0000 
     56 H56        -0.3355    3.7736   -0.3927 H         1 UNK         0.0000 
     57 H57         0.6230    2.3641   -0.8679 H         1 UNK         0.0000 
     58 H58         1.6111    5.2740    0.0972 H         1 UNK         0.0000 
     59 H59        -3.1126    3.1430    0.5120 H         1 UNK         0.0000 
     60 H60        -0.7887    0.5005    2.1266 H         1 UNK         0.0000 
     61 H61        -0.2974   -1.7457    3.2254 H         1 UNK         0.0000 
     62 O62         1.4755    0.6720    4.1577 O.3       1 UNK         0.0000 
     63 C63         1.6794    1.7094    5.1727 C.3       1 UNK         0.0000 
     64 C64         2.8224    2.5277    4.5854 C.3       1 UNK         0.0000 
     65 H65         3.0726    3.3505    5.2603 H         1 UNK         0.0000 
     66 H66         3.7100    1.9035    4.4480 H         1 UNK         0.0000 
     67 H67         2.5318    2.9454    3.6177 H         1 UNK         0.0000 
     68 C68         0.4181    2.5587    5.2906 C.3       1 UNK         0.0000 
     69 H69         0.1156    2.9145    4.2998 H         1 UNK         0.0000 
     70 H70        -0.4024    1.9946    5.7360 H         1 UNK         0.0000 
     71 H71         0.6297    3.4293    5.9180 H         1 UNK         0.0000 
     72 C72         2.0936    1.0807    6.4989 C.3       1 UNK         0.0000 
     73 H73         1.2756    0.5148    6.9446 H         1 UNK         0.0000 
     74 H74         2.9516    0.4187    6.3488 H         1 UNK         0.0000 
     75 H75         2.3913    1.8758    7.1888 H         1 UNK         0.0000 
@<TRIPOS>BOND
     1    1   30 1    
     2    1   36 1    
     3    1   37 1    
     4    1   38 1    
     5    2   20 1    
     6    2   59 1    
     7    2   29 am   BACKBONE|DICT|INTERRES
     8    3   27 2    
     9    4   39 1    
    10    4   30 1    
    11    4   40 1    
    12    4   41 1    
    13    5   33 1    
    14    5   60 1    
    15    5   28 am   BACKBONE|DICT|INTERRES
    16    6   28 2    
    17    7   61 1    
    18    7   31 am   BACKBONE|DICT|INTERRES
    19    7   32 1    
    20    8   29 2    
    21    9   15 ar   
    22    9   23 ar   
    23    9   42 1    
    24   10   31 2    
    25   11   16 ar   
    26   11   43 1    
    27   11   23 ar   
    28   12   26 1    
    29   12   25 1    
    30   13   44 1    
    31   13   17 ar   
    32   13   24 ar   
    33   14   24 ar   
    34   14   18 ar   
    35   14   45 1    
    36   15   25 ar   
    37   15   46 1    
    38   16   47 1    
    39   16   25 ar   
    40   17   48 1    
    41   17   26 ar   
    42   18   26 ar   
    43   18   49 1    
    44   19   50 1    
    45   19   23 1    
    46   19   32 1    
    47   19   51 1    
    48   20   53 1    
    49   20   27 1    
    50   20   52 1    
    51   21   54 1    
    52   21   22 1    
    53   21   30 1    
    54   21   55 1    
    55   22   56 1    
    56   22   33 1    
    57   22   57 1    
    58   24   27 1    
    59   28   32 1    
    60   29   33 1    
    61   30   58 1    
    62   31   62 1    
    63   32   34 1    
    64   33   35 1    
    65   62   63 1    
    66   63   72 1    
    67   63   68 1    
    68   63   64 1    
    69   64   65 1    
    70   64   66 1    
    71   64   67 1    
    72   68   71 1    
    73   68   70 1    
    74   68   69 1    
    75   72   75 1    
    76   72   73 1    
    77   72   74 1    
@<TRIPOS>SUBSTRUCTURE
     1 UNK         1 GROUP             0       ****    0 ROOT    
@<TRIPOS>MOLECULE
Cpd1-10
75   77    1
SMALL
USER_CHARGES


@<TRIPOS>ATOM
      1 C1          1.3525    4.4491   -2.7785 C.3       1 UNK         0.0000 
      2 N2         -3.0682    2.3863   -0.2675 N.am      1 UNK         0.0000 
      3 O3         -6.2434    2.2394   -0.1145 O.2       1 UNK         0.0000 
      4 C4          2.6304    3.9495   -0.6795 C.3       1 UNK         0.0000 
      5 N5         -0.3675    0.5352    1.3180 N.am      1 UNK         0.0000 
      6 O6          1.6097    0.5330    0.1623 O.2       1 UNK         0.0000 
      7 N7          0.6540   -1.2065    3.1822 N.am      1 UNK         0.0000 
      8 O8         -1.8966    0.6217   -1.1061 O.2       1 UNK         0.0000 
      9 C9         -0.3014   -2.3824   -0.4443 C.ar      1 UNK         0.0000 
     10 O10        -0.0915   -0.4446    5.1954 O.2       1 UNK         0.0000 
     11 C11        -0.5203   -3.7848    1.4965 C.ar      1 UNK         0.0000 
     12 O12        -3.7239   -3.7092   -0.2985 O.3       1 UNK         0.0000 
     13 C13        -5.0639   -0.4487    0.6774 C.ar      1 UNK         0.0000 
     14 C14        -4.9675   -0.5912   -1.7390 C.ar      1 UNK         0.0000 
     15 C15        -1.5979   -2.6926   -0.8244 C.ar      1 UNK         0.0000 
     16 C16        -1.8343   -4.0961    1.1342 C.ar      1 UNK         0.0000 
     17 C17        -4.6396   -1.7706    0.7726 C.ar      1 UNK         0.0000 
     18 C18        -4.6029   -1.9304   -1.6513 C.ar      1 UNK         0.0000 
     19 C19         1.5719   -2.3624    1.2174 C.3       1 UNK         0.0000 
     20 C20        -4.1373    2.3921   -1.2546 C.3       1 UNK         0.0000 
     21 C21         0.2693    3.0609   -0.9900 C.3       1 UNK         0.0000 
     22 C22        -0.0806    2.9189    0.4923 C.3       1 UNK         0.0000 
     23 C23         0.2436   -2.8905    0.7398 C.ar      1 UNK         0.0000 
     24 C24        -5.1686    0.1579   -0.5771 C.ar      1 UNK         0.0000 
     25 C25        -2.3730   -3.5132   -0.0055 C.ar      1 UNK         0.0000 
     26 C26        -4.3638   -2.4787   -0.3945 C.ar      1 UNK         0.0000 
     27 C27        -5.3251    1.6425   -0.6409 C.2       1 UNK         0.0000 
     28 C28         0.8814    0.0968    1.0494 C.2       1 UNK         0.0000 
     29 C29        -2.0375    1.4964   -0.2641 C.2       1 UNK         0.0000 
     30 C30         1.2431    4.2128   -1.2708 C.3       1 UNK         0.0000 
     31 C31         0.6235   -0.3143    4.2135 C.2       1 UNK         0.0000 
     32 C32         1.4249   -1.0226    1.9684 C.3       1 UNK         0.0000 
     33 C33        -1.0296    1.7539    0.8681 C.3       1 UNK         0.0000 
     34 H34         2.4276   -0.6791    2.2377 H         1 UNK         0.0000 
     35 H35        -1.6079    2.0807    1.7391 H         1 UNK         0.0000 
     36 H36         0.3762    4.6777   -3.2178 H         1 UNK         0.0000 
     37 H37         2.0298    5.2799   -3.0007 H         1 UNK         0.0000 
     38 H38         1.7449    3.5536   -3.2755 H         1 UNK         0.0000 
     39 H39         2.6061    3.8404    0.4087 H         1 UNK         0.0000 
     40 H40         3.0494    3.0276   -1.0993 H         1 UNK         0.0000 
     41 H41         3.3137    4.7719   -0.9151 H         1 UNK         0.0000 
     42 H42         0.2833   -1.6997   -1.0551 H         1 UNK         0.0000 
     43 H43        -0.1005   -4.2276    2.3973 H         1 UNK         0.0000 
     44 H44        -5.2415    0.1358    1.5754 H         1 UNK         0.0000 
     45 H45        -5.0582   -0.1249   -2.7159 H         1 UNK         0.0000 
     46 H46        -2.0238   -2.2466   -1.7156 H         1 UNK         0.0000 
     47 H47        -2.4485   -4.7478    1.7470 H         1 UNK         0.0000 
     48 H48        -4.4586   -2.2363    1.7364 H         1 UNK         0.0000 
     49 H49        -4.4086   -2.5213   -2.5403 H         1 UNK         0.0000 
     50 H50         2.0622   -3.0705    1.8921 H         1 UNK         0.0000 
     51 H51         2.2396   -2.1861    0.3699 H         1 UNK         0.0000 
     52 H52        -3.7714    1.8968   -2.1562 H         1 UNK         0.0000 
     53 H53        -4.4281    3.4201   -1.4758 H         1 UNK         0.0000 
     54 H54         0.7001    2.1245   -1.3600 H         1 UNK         0.0000 
     55 H55        -0.6547    3.2444   -1.5557 H         1 UNK         0.0000 
     56 H56         0.8239    2.8058    1.0966 H         1 UNK         0.0000 
     57 H57        -0.5669    3.8452    0.8214 H         1 UNK         0.0000 
     58 H58         0.8363    5.1253   -0.8096 H         1 UNK         0.0000 
     59 H59        -3.1476    3.0396    0.5012 H         1 UNK         0.0000 
     60 H60        -0.8596    0.0257    2.0402 H         1 UNK         0.0000 
     61 H61         0.0439   -2.0081    3.2805 H         1 UNK         0.0000 
     62 O62         1.4692    0.6982    3.9829 O.3       1 UNK         0.0000 
     63 C63         1.4775    1.8944    4.8261 C.3       1 UNK         0.0000 
     64 C64         1.8643    1.5419    6.2588 C.3       1 UNK         0.0000 
     65 H65         2.0443    2.4675    6.8133 H         1 UNK         0.0000 
     66 H66         1.0774    0.9768    6.7580 H         1 UNK         0.0000 
     67 H67         2.7877    0.9549    6.2637 H         1 UNK         0.0000 
     68 C68         2.5580    2.7504    4.1760 C.3       1 UNK         0.0000 
     69 H69         3.5247    2.2406    4.2152 H         1 UNK         0.0000 
     70 H70         2.3081    2.9497    3.1297 H         1 UNK         0.0000 
     71 H71         2.6418    3.7038    4.7039 H         1 UNK         0.0000 
     72 C72         0.1189    2.5802    4.7350 C.3       1 UNK         0.0000 
     73 H73        -0.1232    2.7914    3.6877 H         1 UNK         0.0000 
     74 H74        -0.6680    1.9617    5.1702 H         1 UNK         0.0000 
     75 H75         0.1571    3.5305    5.2752 H         1 UNK         0.0000 
@<TRIPOS>BOND
     1    1   37 1    
     2    1   38 1    
     3    1   30 1    
     4    1   36 1    
     5    2   20 1    
     6    2   29 am   BACKBONE|DICT|INTERRES
     7    2   59 1    
     8    3   27 2    
     9    4   41 1    
    10    4   40 1    
    11    4   30 1    
    12    4   39 1    
    13    5   28 am   BACKBONE|DICT|INTERRES
    14    5   33 1    
    15    5   60 1    
    16    6   28 2    
    17    7   32 1    
    18    7   31 am   BACKBONE|DICT|INTERRES
    19    7   61 1    
    20    8   29 2    
    21    9   42 1    
    22    9   15 ar   
    23    9   23 ar   
    24   10   31 2    
    25   11   23 ar   
    26   11   16 ar   
    27   11   43 1    
    28   12   25 1    
    29   12   26 1    
    30   13   24 ar   
    31   13   17 ar   
    32   13   44 1    
    33   14   45 1    
    34   14   18 ar   
    35   14   24 ar   
    36   15   46 1    
    37   15   25 ar   
    38   16   25 ar   
    39   16   47 1    
    40   17   26 ar   
    41   17   48 1    
    42   18   49 1    
    43   18   26 ar   
    44   19   50 1    
    45   19   51 1    
    46   19   23 1    
    47   19   32 1    
    48   20   52 1    
    49   20   27 1    
    50   20   53 1    
    51   21   30 1    
    52   21   54 1    
    53   21   22 1    
    54   21   55 1    
    55   22   56 1    
    56   22   33 1    
    57   22   57 1    
    58   24   27 1    
    59   28   32 1    
    60   29   33 1    
    61   30   58 1    
    62   31   62 1    
    63   32   34 1    
    64   33   35 1    
    65   62   63 1    
    66   63   68 1    
    67   63   64 1    
    68   63   72 1    
    69   64   67 1    
    70   64   65 1    
    71   64   66 1    
    72   68   70 1    
    73   68   69 1    
    74   68   71 1    
    75   72   73 1    
    76   72   74 1    
    77   72   75 1    
@<TRIPOS>SUBSTRUCTURE
     1 UNK         1 GROUP             0       ****    0 ROOT    
