@<TRIPOS>MOLECULE
Cpd1-500-MEC
95   95    1
SMALL
USER_CHARGES


@<TRIPOS>ATOM
      1 C1          5.2430    0.9785   -3.2852 C.3       1 UNK         0.0000 
      2 H2          4.2667    1.0145   -3.7685 H         1 UNK         0.0000 
      3 H3          5.9365    1.6195   -3.8373 H         1 UNK         0.0000 
      4 H4          5.6243   -0.0470   -3.3190 H         1 UNK         0.0000 
      5 C5          5.1698    1.4587   -1.8386 C.3       1 UNK         0.0000 
      6 C6          4.5095    2.8268   -1.7067 C.3       1 UNK         0.0000 
      7 H7          3.4988    2.8214   -2.1191 H         1 UNK         0.0000 
      8 H8          4.4673    3.1171   -0.6523 H         1 UNK         0.0000 
      9 H9          5.1057    3.5710   -2.2432 H         1 UNK         0.0000 
     10 C10         6.5606    1.4753   -1.2145 C.3       1 UNK         0.0000 
     11 H11         6.5004    1.7390   -0.1548 H         1 UNK         0.0000 
     12 H12         7.0345    0.4939   -1.3077 H         1 UNK         0.0000 
     13 H13         7.1848    2.2128   -1.7256 H         1 UNK         0.0000 
     14 O14         4.4569    0.4855   -1.0128 O.3       1 UNK         0.0000 
     15 C15         3.1717    0.1754   -1.2564 C.2       1 UNK         0.0000 
     16 O16         2.4959    0.6182   -2.1804 O.2       1 UNK         0.0000 
     17 N17         2.7175   -0.7143   -0.3445 N.am      1 UNK         0.0000 
     18 H18         3.3108   -0.9912    0.4462 H         1 UNK         0.0000 
     19 C19         1.3716   -1.2459   -0.4455 C.3       1 UNK         0.0000 
     20 C20         0.3945   -0.2512    0.2082 C.2       1 UNK         0.0000 
     21 N21        -0.1282    0.6628   -0.6363 N.am      1 UNK         0.0000 
     22 H22         0.2432    0.7016   -1.5811 H         1 UNK         0.0000 
     23 O23         0.1518   -0.2856    1.4160 O.2       1 UNK         0.0000 
     24 H24         1.1259   -1.3358   -1.5092 H         1 UNK         0.0000 
     25 C25         1.2951   -2.6314    0.2110 C.3       1 UNK         0.0000 
     26 H26         1.5189   -2.5352    1.2775 H         1 UNK         0.0000 
     27 H27         2.0682   -3.2572   -0.2471 H         1 UNK         0.0000 
     28 C28        -0.0771   -3.2224   -0.0028 C.ar      1 UNK         0.0000 
     29 C29        -1.0696   -3.0941    0.9753 C.ar      1 UNK         0.0000 
     30 C30        -2.3933   -3.4062    0.6845 C.ar      1 UNK         0.0000 
     31 H31        -3.1852   -3.2496    1.4108 H         1 UNK         0.0000 
     32 H32        -0.8112   -2.6816    1.9463 H         1 UNK         0.0000 
     33 C33        -0.4198   -3.7873   -1.2364 C.ar      1 UNK         0.0000 
     34 H34         0.3477   -3.9279   -1.9936 H         1 UNK         0.0000 
     35 C35        -1.7443   -4.1032   -1.5420 C.ar      1 UNK         0.0000 
     36 H36        -2.0252   -4.4687   -2.5247 H         1 UNK         0.0000 
     37 C37        -2.7251   -3.8411   -0.5943 C.ar      1 UNK         0.0000 
     38 O38        -4.0764   -3.8734   -0.9504 O.3       1 UNK         0.0000 
     39 C39        -4.5497   -2.5787   -1.0952 C.ar      1 UNK         0.0000 
     40 C40        -3.8562   -1.6730   -1.9022 C.ar      1 UNK         0.0000 
     41 C41        -4.2317   -0.3403   -1.9088 C.ar      1 UNK         0.0000 
     42 H42        -3.6574    0.3628   -2.5039 H         1 UNK         0.0000 
     43 H43        -2.9963   -2.0018   -2.4745 H         1 UNK         0.0000 
     44 C44        -5.6836   -2.1852   -0.3870 C.ar      1 UNK         0.0000 
     45 H45        -6.2140   -2.9111    0.2201 H         1 UNK         0.0000 
     46 C46        -6.0669   -0.8454   -0.4178 C.ar      1 UNK         0.0000 
     47 H47        -6.9158   -0.5069    0.1685 H         1 UNK         0.0000 
     48 C48        -5.3177    0.0921   -1.1383 C.ar      1 UNK         0.0000 
     49 C49        -5.6287    1.5425   -1.0190 C.2       1 UNK         0.0000 
     50 O50        -6.7271    1.9420   -0.6741 O.2       1 UNK         0.0000 
     51 C51        -4.5030    2.5467   -1.2977 C.3       1 UNK         0.0000 
     52 H52        -4.2589    2.5424   -2.3648 H         1 UNK         0.0000 
     53 H53        -4.8840    3.5353   -1.0312 H         1 UNK         0.0000 
     54 N54        -3.2931    2.2468   -0.5570 N.am      1 UNK         0.0000 
     55 H55        -3.3176    2.2836    0.4685 H         1 UNK         0.0000 
     56 C56        -2.1140    1.9629   -1.1456 C.2       1 UNK         0.0000 
     57 O57        -1.9487    1.8844   -2.3650 O.2       1 UNK         0.0000 
     58 C58        -0.9417    1.7785   -0.1832 C.3       1 UNK         0.0000 
     59 H59        -1.3117    1.5308    0.8139 H         1 UNK         0.0000 
     60 C60        -0.1460    3.0898   -0.0974 C.3       1 UNK         0.0000 
     61 H61        -0.8300    3.8683    0.2672 H         1 UNK         0.0000 
     62 H62         0.1694    3.3815   -1.1069 H         1 UNK         0.0000 
     63 C63         1.0600    2.9801    0.8373 C.3       1 UNK         0.0000 
     64 H64         0.7722    2.4064    1.7286 H         1 UNK         0.0000 
     65 H65         1.8577    2.4054    0.3408 H         1 UNK         0.0000 
     66 C66         1.6185    4.3369    1.2831 C.3       1 UNK         0.0000 
     67 C67         2.8270    4.1341    2.1979 C.3       1 UNK         0.0000 
     68 H68         3.6414    3.6416    1.6528 H         1 UNK         0.0000 
     69 H69         3.2043    5.0906    2.5729 H         1 UNK         0.0000 
     70 H70         2.5726    3.5060    3.0579 H         1 UNK         0.0000 
     71 H71         0.8316    4.8420    1.8623 H         1 UNK         0.0000 
     72 C72         1.9813    5.2328    0.0969 C.3       1 UNK         0.0000 
     73 H73         2.4291    6.1698    0.4429 H         1 UNK         0.0000 
     74 H74         2.7077    4.7328   -0.5547 H         1 UNK         0.0000 
     75 H75         1.1054    5.4853   -0.5081 H         1 UNK         0.0000 
     76 C76         6.2523   -3.4776    2.4530 C.3       1 UNK         0.0000 
     77 H77         6.9354   -4.2286    2.0517 H         1 UNK         0.0000 
     78 H78         5.6612   -3.9045    3.2634 H         1 UNK         0.0000 
     79 H79         6.7933   -2.5933    2.7958 H         1 UNK         0.0000 
     80 S80         5.1021   -2.9802    1.1581 S.3       1 UNK         0.0000 
     81 C81         6.2925   -2.2329    0.0277 C.3       1 UNK         0.0000 
     82 H82         6.9446   -3.0107   -0.3744 H         1 UNK         0.0000 
     83 H83         6.8631   -1.4761    0.5710 H         1 UNK         0.0000 
     84 H84         5.7163   -1.7647   -0.7730 H         1 UNK         0.0000 
     85 O85         4.3179   -1.7972    1.7528 O.2       1 UNK         0.0000 
     86 C86        -1.6698    0.8287    3.9969 C.3       1 UNK         0.0000 
     87 H87        -1.7152   -0.0765    4.6066 H         1 UNK         0.0000 
     88 H88        -1.5029    1.6981    4.6336 H         1 UNK         0.0000 
     89 H89        -0.9002    0.7431    3.2248 H         1 UNK         0.0000 
     90 S90        -3.2663    1.0633    3.1904 S.3       1 UNK         0.0000 
     91 C91        -3.2056   -0.3936    2.1226 C.3       1 UNK         0.0000 
     92 H92        -4.0459   -0.3303    1.4271 H         1 UNK         0.0000 
     93 H93        -3.3158   -1.2756    2.7580 H         1 UNK         0.0000 
     94 H94        -2.2494   -0.4185    1.5911 H         1 UNK         0.0000 
     95 O95        -3.0669    2.2757    2.2621 O.2       1 UNK         0.0000 
@<TRIPOS>BOND
     1    1    5 1    
     2    1    2 1    
     3    1    3 1    
     4    1    4 1    
     5    5    6 1    
     6    5   10 1    
     7    5   14 1    
     8    6    8 1    
     9    6    7 1    
    10    6    9 1    
    11   10   11 1    
    12   10   12 1    
    13   10   13 1    
    14   14   15 1    
    15   15   17 am   BACKBONE|DICT|INTERRES
    16   15   16 2    
    17   17   18 1    
    18   17   19 1    
    19   19   24 1    
    20   19   20 1    
    21   19   25 1    
    22   20   23 2    
    23   20   21 am   BACKBONE|DICT|INTERRES
    24   21   58 1    
    25   21   22 1    
    26   25   26 1    
    27   25   27 1    
    28   25   28 1    
    29   28   29 ar   
    30   28   33 ar   
    31   29   32 1    
    32   29   30 ar   
    33   30   31 1    
    34   30   37 ar   
    35   33   34 1    
    36   33   35 ar   
    37   35   37 ar   
    38   35   36 1    
    39   37   38 1    
    40   38   39 1    
    41   39   44 ar   
    42   39   40 ar   
    43   40   41 ar   
    44   40   43 1    
    45   41   48 ar   
    46   41   42 1    
    47   44   45 1    
    48   44   46 ar   
    49   46   47 1    
    50   46   48 ar   
    51   48   49 1    
    52   49   50 2    
    53   49   51 1    
    54   51   53 1    
    55   51   54 1    
    56   51   52 1    
    57   54   55 1    
    58   54   56 am   BACKBONE|DICT|INTERRES
    59   56   58 1    
    60   56   57 2    
    61   58   60 1    
    62   58   59 1    
    63   60   61 1    
    64   60   63 1    
    65   60   62 1    
    66   63   66 1    
    67   63   64 1    
    68   63   65 1    
    69   66   71 1    
    70   66   67 1    
    71   66   72 1    
    72   67   69 1    
    73   67   70 1    
    74   67   68 1    
    75   72   73 1    
    76   72   74 1    
    77   72   75 1    
    78   76   79 1    
    79   76   78 1    
    80   76   77 1    
    81   76   80 1    
    82   80   85 2    
    83   80   81 1    
    84   81   83 1    
    85   81   82 1    
    86   81   84 1    
    87   86   87 1    
    88   86   88 1    
    89   86   89 1    
    90   86   90 1    
    91   90   91 1    
    92   90   95 2    
    93   91   93 1    
    94   91   92 1    
    95   91   94 1    
@<TRIPOS>SUBSTRUCTURE
     1 UNK         1 GROUP             0       ****    0 ROOT    
@<TRIPOS>MOLECULE
Cpd1-1000
95   95    1
SMALL
USER_CHARGES


@<TRIPOS>ATOM
      1 C1          5.6938   -0.1773   -3.2600 C.3       1 UNK         0.0000 
      2 H2          4.7731   -0.0990   -3.8388 H         1 UNK         0.0000 
      3 H3          6.4268    0.5271   -3.6643 H         1 UNK         0.0000 
      4 H4          6.0982   -1.1890   -3.3604 H         1 UNK         0.0000 
      5 C5          5.4517    0.1450   -1.7885 C.3       1 UNK         0.0000 
      6 C6          4.8075    1.5147   -1.5909 C.3       1 UNK         0.0000 
      7 H7          5.5121    2.2927   -1.8999 H         1 UNK         0.0000 
      8 H8          3.8946    1.6098   -2.1806 H         1 UNK         0.0000 
      9 H9          4.5670    1.6714   -0.5330 H         1 UNK         0.0000 
     10 C10         6.7528    0.0462   -1.0003 C.3       1 UNK         0.0000 
     11 H11         7.1809   -0.9555   -1.0953 H         1 UNK         0.0000 
     12 H12         7.4728    0.7733   -1.3843 H         1 UNK         0.0000 
     13 H13         6.5789    0.2557    0.0592 H         1 UNK         0.0000 
     14 O14         4.6216   -0.8901   -1.1746 O.3       1 UNK         0.0000 
     15 C15         3.3490   -1.0764   -1.5651 C.2       1 UNK         0.0000 
     16 O16         2.7968   -0.4922   -2.4892 O.2       1 UNK         0.0000 
     17 N17         2.7515   -2.0276   -0.7993 N.am      1 UNK         0.0000 
     18 H18         3.1963   -2.2897    0.0880 H         1 UNK         0.0000 
     19 C19         1.3099   -2.1977   -0.8762 C.3       1 UNK         0.0000 
     20 C20         0.6620   -1.0003   -0.1595 C.2       1 UNK         0.0000 
     21 N21         0.1450   -0.0469   -0.9629 N.am      1 UNK         0.0000 
     22 H22         0.3252   -0.1198   -1.9590 H         1 UNK         0.0000 
     23 O23         0.6884   -0.9098    1.0710 O.2       1 UNK         0.0000 
     24 H24         1.0204   -2.1964   -1.9317 H         1 UNK         0.0000 
     25 C25         0.9062   -3.5294   -0.2301 C.3       1 UNK         0.0000 
     26 H26         1.2376   -3.5230    0.8129 H         1 UNK         0.0000 
     27 H27         1.4384   -4.3279   -0.7566 H         1 UNK         0.0000 
     28 C28        -0.5880   -3.7091   -0.3251 C.ar      1 UNK         0.0000 
     29 C29        -1.4121   -3.3771    0.7553 C.ar      1 UNK         0.0000 
     30 C30        -2.7929   -3.3109    0.5976 C.ar      1 UNK         0.0000 
     31 H31        -3.4436   -3.0078    1.4115 H         1 UNK         0.0000 
     32 H32        -0.9624   -3.1161    1.7095 H         1 UNK         0.0000 
     33 C33        -1.1841   -4.0813   -1.5355 C.ar      1 UNK         0.0000 
     34 H34        -0.5573   -4.3778   -2.3729 H         1 UNK         0.0000 
     35 C35        -2.5666   -4.0122   -1.7090 C.ar      1 UNK         0.0000 
     36 H36        -3.0268   -4.2324   -2.6671 H         1 UNK         0.0000 
     37 C37        -3.3479   -3.5615   -0.6523 C.ar      1 UNK         0.0000 
     38 O38        -4.6888   -3.2244   -0.8587 O.3       1 UNK         0.0000 
     39 C39        -4.8128   -1.8457   -0.9440 C.ar      1 UNK         0.0000 
     40 C40        -4.0352   -1.1372   -1.8633 C.ar      1 UNK         0.0000 
     41 C41        -4.0417    0.2476   -1.8373 C.ar      1 UNK         0.0000 
     42 H42        -3.3984    0.7869   -2.5254 H         1 UNK         0.0000 
     43 H43        -3.3930   -1.6688   -2.5561 H         1 UNK         0.0000 
     44 C44        -5.6730   -1.1825   -0.0710 C.ar      1 UNK         0.0000 
     45 H45        -6.2740   -1.7564    0.6262 H         1 UNK         0.0000 
     46 C46        -5.6891    0.2117   -0.0673 C.ar      1 UNK         0.0000 
     47 H47        -6.3154    0.7487    0.6385 H         1 UNK         0.0000 
     48 C48        -4.8449    0.9341   -0.9183 C.ar      1 UNK         0.0000 
     49 C49        -4.7494    2.4150   -0.7906 C.2       1 UNK         0.0000 
     50 O50        -5.6464    3.0816   -0.3058 O.2       1 UNK         0.0000 
     51 C51        -3.4450    3.0873   -1.2379 C.3       1 UNK         0.0000 
     52 H52        -3.3360    3.0147   -2.3242 H         1 UNK         0.0000 
     53 H53        -3.5129    4.1421   -0.9620 H         1 UNK         0.0000 
     54 N54        -2.2889    2.4671   -0.6210 N.am      1 UNK         0.0000 
     55 H55        -2.2061    2.4996    0.4026 H         1 UNK         0.0000 
     56 C56        -1.3120    1.8519   -1.3131 C.2       1 UNK         0.0000 
     57 O57        -1.2865    1.7492   -2.5419 O.2       1 UNK         0.0000 
     58 C58        -0.1771    1.2823   -0.4637 C.3       1 UNK         0.0000 
     59 H59        -0.4976    1.1861    0.5763 H         1 UNK         0.0000 
     60 C60         1.0507    2.2048   -0.5332 C.3       1 UNK         0.0000 
     61 H61         1.3749    2.2690   -1.5791 H         1 UNK         0.0000 
     62 H62         1.8585    1.7123    0.0243 H         1 UNK         0.0000 
     63 C63         0.7857    3.5890    0.0598 C.3       1 UNK         0.0000 
     64 H64         0.1059    4.1535   -0.5955 H         1 UNK         0.0000 
     65 H65         0.2626    3.4668    1.0185 H         1 UNK         0.0000 
     66 C66         2.0554    4.4189    0.2830 C.3       1 UNK         0.0000 
     67 C67         2.7799    4.7150   -1.0316 C.3       1 UNK         0.0000 
     68 H68         2.1190    5.2663   -1.7120 H         1 UNK         0.0000 
     69 H69         3.6697    5.3280   -0.8560 H         1 UNK         0.0000 
     70 H70         3.1005    3.8009   -1.5391 H         1 UNK         0.0000 
     71 H71         2.7295    3.8315    0.9247 H         1 UNK         0.0000 
     72 C72         1.7147    5.7213    1.0086 C.3       1 UNK         0.0000 
     73 H73         2.6157    6.3105    1.2061 H         1 UNK         0.0000 
     74 H74         1.0410    6.3328    0.3961 H         1 UNK         0.0000 
     75 H75         1.2177    5.5263    1.9642 H         1 UNK         0.0000 
     76 C76         3.6557   -0.0893    2.0453 C.3       1 UNK         0.0000 
     77 H77         3.7122    0.7173    2.7793 H         1 UNK         0.0000 
     78 H78         2.8227    0.0802    1.3623 H         1 UNK         0.0000 
     79 H79         4.5948   -0.2002    1.4976 H         1 UNK         0.0000 
     80 S80         3.3101   -1.6439    2.8940 S.3       1 UNK         0.0000 
     81 C81         4.7891   -1.6846    3.9277 C.3       1 UNK         0.0000 
     82 H82         4.7539   -0.8550    4.6365 H         1 UNK         0.0000 
     83 H83         5.6687   -1.6165    3.2841 H         1 UNK         0.0000 
     84 H84         4.7811   -2.6339    4.4638 H         1 UNK         0.0000 
     85 O85         3.5428   -2.7416    1.8422 O.2       1 UNK         0.0000 
     86 C86        -1.7045    0.7927    4.3172 C.3       1 UNK         0.0000 
     87 H87        -0.7099    0.5517    3.9351 H         1 UNK         0.0000 
     88 H88        -2.1492   -0.0628    4.8288 H         1 UNK         0.0000 
     89 H89        -1.6621    1.6502    4.9891 H         1 UNK         0.0000 
     90 S90        -2.7504    1.2559    2.9237 S.3       1 UNK         0.0000 
     91 C91        -2.5592   -0.2638    1.9682 C.3       1 UNK         0.0000 
     92 H92        -3.0415   -0.1118    0.9975 H         1 UNK         0.0000 
     93 H93        -3.0716   -1.0600    2.5122 H         1 UNK         0.0000 
     94 H94        -1.4953   -0.4897    1.8417 H         1 UNK         0.0000 
     95 O95        -1.9377    2.3266    2.1709 O.2       1 UNK         0.0000 
@<TRIPOS>BOND
     1    1    5 1    
     2    1    2 1    
     3    1    3 1    
     4    1    4 1    
     5    5    6 1    
     6    5   14 1    
     7    5   10 1    
     8    6    9 1    
     9    6    7 1    
    10    6    8 1    
    11   10   13 1    
    12   10   11 1    
    13   10   12 1    
    14   14   15 1    
    15   15   17 am   BACKBONE|DICT|INTERRES
    16   15   16 2    
    17   17   18 1    
    18   17   19 1    
    19   19   24 1    
    20   19   25 1    
    21   19   20 1    
    22   20   23 2    
    23   20   21 am   BACKBONE|DICT|INTERRES
    24   21   58 1    
    25   21   22 1    
    26   25   26 1    
    27   25   27 1    
    28   25   28 1    
    29   28   29 ar   
    30   28   33 ar   
    31   29   32 1    
    32   29   30 ar   
    33   30   31 1    
    34   30   37 ar   
    35   33   34 1    
    36   33   35 ar   
    37   35   37 ar   
    38   35   36 1    
    39   37   38 1    
    40   38   39 1    
    41   39   44 ar   
    42   39   40 ar   
    43   40   41 ar   
    44   40   43 1    
    45   41   48 ar   
    46   41   42 1    
    47   44   46 ar   
    48   44   45 1    
    49   46   47 1    
    50   46   48 ar   
    51   48   49 1    
    52   49   50 2    
    53   49   51 1    
    54   51   53 1    
    55   51   54 1    
    56   51   52 1    
    57   54   55 1    
    58   54   56 am   BACKBONE|DICT|INTERRES
    59   56   58 1    
    60   56   57 2    
    61   58   59 1    
    62   58   60 1    
    63   60   62 1    
    64   60   63 1    
    65   60   61 1    
    66   63   66 1    
    67   63   65 1    
    68   63   64 1    
    69   66   71 1    
    70   66   72 1    
    71   66   67 1    
    72   67   69 1    
    73   67   68 1    
    74   67   70 1    
    75   72   73 1    
    76   72   75 1    
    77   72   74 1    
    78   76   77 1    
    79   76   80 1    
    80   76   78 1    
    81   76   79 1    
    82   80   81 1    
    83   80   85 2    
    84   81   84 1    
    85   81   82 1    
    86   81   83 1    
    87   86   88 1    
    88   86   89 1    
    89   86   87 1    
    90   86   90 1    
    91   90   91 1    
    92   90   95 2    
    93   91   93 1    
    94   91   92 1    
    95   91   94 1    
@<TRIPOS>SUBSTRUCTURE
     1 UNK         1 GROUP             0       ****    0 ROOT    
@<TRIPOS>MOLECULE
Cpd1-1500
85   86    1
SMALL
USER_CHARGES


@<TRIPOS>ATOM
      1 C1         -5.8637   -0.9352    0.0523 C.3       1 UNK         0.0000 
      2 H2         -5.6032   -1.1508    1.0933 H         1 UNK         0.0000 
      3 H3         -6.6679   -1.6128   -0.2497 H         1 UNK         0.0000 
      4 H4         -4.9941   -1.1208   -0.5804 H         1 UNK         0.0000 
      5 C5         -6.3387    0.5079   -0.0800 C.3       1 UNK         0.0000 
      6 C6         -7.5240    0.7722    0.8406 C.3       1 UNK         0.0000 
      7 H7         -7.2581    0.5539    1.8785 H         1 UNK         0.0000 
      8 H8         -7.8381    1.8173    0.7684 H         1 UNK         0.0000 
      9 H9         -8.3630    0.1339    0.5521 H         1 UNK         0.0000 
     10 C10        -6.6853    0.8813   -1.5181 C.3       1 UNK         0.0000 
     11 H11        -6.9225    1.9476   -1.5816 H         1 UNK         0.0000 
     12 H12        -5.8642    0.6548   -2.1983 H         1 UNK         0.0000 
     13 H13        -7.5685    0.3151   -1.8280 H         1 UNK         0.0000 
     14 O14        -5.3115    1.4080    0.4476 O.3       1 UNK         0.0000 
     15 C15        -4.0877    1.4526   -0.0979 C.2       1 UNK         0.0000 
     16 O16        -3.7250    0.8594   -1.1033 O.2       1 UNK         0.0000 
     17 N17        -3.2796    2.2869    0.6141 N.am      1 UNK         0.0000 
     18 H18        -3.5969    2.5781    1.5297 H         1 UNK         0.0000 
     19 C19        -1.8644    2.3677    0.3004 C.3       1 UNK         0.0000 
     20 C20        -1.1535    1.0945    0.7955 C.2       1 UNK         0.0000 
     21 N21        -0.7923    0.2183   -0.1596 N.am      1 UNK         0.0000 
     22 H22        -1.0762    0.3718   -1.1208 H         1 UNK         0.0000 
     23 O23        -0.9538    0.9089    1.9972 O.2       1 UNK         0.0000 
     24 H24        -1.7714    2.4394   -0.7878 H         1 UNK         0.0000 
     25 C25        -1.2569    3.6203    0.9490 C.3       1 UNK         0.0000 
     26 H26        -1.3659    3.5421    2.0357 H         1 UNK         0.0000 
     27 H27        -1.8295    4.4866    0.6046 H         1 UNK         0.0000 
     28 C28         0.1997    3.7494    0.5763 C.ar      1 UNK         0.0000 
     29 C29         1.1952    3.2341    1.4138 C.ar      1 UNK         0.0000 
     30 C30         2.5150    3.1581    0.9806 C.ar      1 UNK         0.0000 
     31 H31         3.2891    2.7228    1.6042 H         1 UNK         0.0000 
     32 H32         0.9240    2.8447    2.3909 H         1 UNK         0.0000 
     33 C33         0.5729    4.2835   -0.6617 C.ar      1 UNK         0.0000 
     34 H34        -0.1846    4.7202   -1.3078 H         1 UNK         0.0000 
     35 C35         1.8926    4.2105   -1.1091 C.ar      1 UNK         0.0000 
     36 H36         2.1740    4.5661   -2.0953 H         1 UNK         0.0000 
     37 C37         2.8371    3.5878   -0.3026 C.ar      1 UNK         0.0000 
     38 O38         4.1012    3.2721   -0.8092 O.3       1 UNK         0.0000 
     39 C39         4.1544    1.9299   -1.1497 C.ar      1 UNK         0.0000 
     40 C40         3.1648    1.3824   -1.9694 C.ar      1 UNK         0.0000 
     41 C41         3.1267    0.0129   -2.1692 C.ar      1 UNK         0.0000 
     42 H42         2.3256   -0.4029   -2.7699 H         1 UNK         0.0000 
     43 H43         2.4013    2.0182   -2.4024 H         1 UNK         0.0000 
     44 C44         5.1715    1.1321   -0.6271 C.ar      1 UNK         0.0000 
     45 H45         5.9392    1.5827   -0.0068 H         1 UNK         0.0000 
     46 C46         5.1331   -0.2445   -0.8476 C.ar      1 UNK         0.0000 
     47 H47         5.8836   -0.8897   -0.4002 H         1 UNK         0.0000 
     48 C48         4.0845   -0.8184   -1.5768 C.ar      1 UNK         0.0000 
     49 C49         3.9405   -2.3000   -1.6506 C.2       1 UNK         0.0000 
     50 O50         4.8874   -3.0515   -1.5026 O.2       1 UNK         0.0000 
     51 C51         2.5245   -2.8683   -1.8402 C.3       1 UNK         0.0000 
     52 H52         2.1315   -2.6009   -2.8253 H         1 UNK         0.0000 
     53 H53         2.6003   -3.9556   -1.7745 H         1 UNK         0.0000 
     54 N54         1.6197   -2.3551   -0.8291 N.am      1 UNK         0.0000 
     55 H55         1.8248   -2.5697    0.1553 H         1 UNK         0.0000 
     56 C56         0.5958   -1.5174   -1.0854 C.2       1 UNK         0.0000 
     57 O57         0.2563   -1.1558   -2.2135 O.2       1 UNK         0.0000 
     58 C58        -0.1628   -1.0499    0.1584 C.3       1 UNK         0.0000 
     59 H59         0.5451   -0.8778    0.9745 H         1 UNK         0.0000 
     60 C60        -1.1667   -2.1246    0.6192 C.3       1 UNK         0.0000 
     61 H61        -1.7357   -1.6982    1.4549 H         1 UNK         0.0000 
     62 H62        -0.5868   -2.9644    1.0189 H         1 UNK         0.0000 
     63 C63        -2.1143   -2.5968   -0.4823 C.3       1 UNK         0.0000 
     64 H64        -2.5767   -1.7209   -0.9602 H         1 UNK         0.0000 
     65 H65        -1.5403   -3.1171   -1.2637 H         1 UNK         0.0000 
     66 C66        -3.2233   -3.5358    0.0094 C.3       1 UNK         0.0000 
     67 C67        -4.1003   -3.9705   -1.1666 C.3       1 UNK         0.0000 
     68 H68        -4.4852   -3.1092   -1.7223 H         1 UNK         0.0000 
     69 H69        -3.5191   -4.5861   -1.8638 H         1 UNK         0.0000 
     70 H70        -4.9542   -4.5642   -0.8247 H         1 UNK         0.0000 
     71 H71        -3.8478   -2.9765    0.7209 H         1 UNK         0.0000 
     72 C72        -2.6618   -4.7645    0.7293 C.3       1 UNK         0.0000 
     73 H73        -3.4655   -5.4615    0.9873 H         1 UNK         0.0000 
     74 H74        -1.9522   -5.2940    0.0809 H         1 UNK         0.0000 
     75 H75        -2.1421   -4.4994    1.6543 H         1 UNK         0.0000 
     76 C76         3.8398   -1.8168    3.8944 C.3       1 UNK         0.0000 
     77 H77         2.9271   -1.4865    4.3943 H         1 UNK         0.0000 
     78 H78         4.6821   -1.1654    4.1347 H         1 UNK         0.0000 
     79 H79         4.0746   -2.8469    4.1630 H         1 UNK         0.0000 
     80 S80         3.5627   -1.7852    2.1149 S.3       1 UNK         0.0000 
     81 C81         3.0953   -0.0507    1.9562 C.3       1 UNK         0.0000 
     82 H82         2.2471    0.1535    2.6154 H         1 UNK         0.0000 
     83 H83         2.8231    0.1212    0.9100 H         1 UNK         0.0000 
     84 H84         3.9600    0.5641    2.2149 H         1 UNK         0.0000 
     85 O85         2.2553   -2.5728    1.9040 O.2       1 UNK         0.0000 
@<TRIPOS>BOND
     1    1    2 1    
     2    1    3 1    
     3    1    4 1    
     4    1    5 1    
     5    5   14 1    
     6    5    6 1    
     7    5   10 1    
     8    6    7 1    
     9    6    8 1    
    10    6    9 1    
    11   10   11 1    
    12   10   12 1    
    13   10   13 1    
    14   14   15 1    
    15   15   17 am   BACKBONE|DICT|INTERRES
    16   15   16 2    
    17   17   18 1    
    18   17   19 1    
    19   19   24 1    
    20   19   20 1    
    21   19   25 1    
    22   20   23 2    
    23   20   21 am   BACKBONE|DICT|INTERRES
    24   21   58 1    
    25   21   22 1    
    26   25   26 1    
    27   25   27 1    
    28   25   28 1    
    29   28   29 ar   
    30   28   33 ar   
    31   29   32 1    
    32   29   30 ar   
    33   30   31 1    
    34   30   37 ar   
    35   33   34 1    
    36   33   35 ar   
    37   35   37 ar   
    38   35   36 1    
    39   37   38 1    
    40   38   39 1    
    41   39   44 ar   
    42   39   40 ar   
    43   40   41 ar   
    44   40   43 1    
    45   41   48 ar   
    46   41   42 1    
    47   44   45 1    
    48   44   46 ar   
    49   46   47 1    
    50   46   48 ar   
    51   48   49 1    
    52   49   50 2    
    53   49   51 1    
    54   51   53 1    
    55   51   54 1    
    56   51   52 1    
    57   54   55 1    
    58   54   56 am   BACKBONE|DICT|INTERRES
    59   56   58 1    
    60   56   57 2    
    61   58   60 1    
    62   58   59 1    
    63   60   62 1    
    64   60   61 1    
    65   60   63 1    
    66   63   66 1    
    67   63   64 1    
    68   63   65 1    
    69   66   71 1    
    70   66   72 1    
    71   66   67 1    
    72   67   70 1    
    73   67   68 1    
    74   67   69 1    
    75   72   73 1    
    76   72   75 1    
    77   72   74 1    
    78   76   78 1    
    79   76   79 1    
    80   76   77 1    
    81   76   80 1    
    82   80   81 1    
    83   80   85 2    
    84   81   84 1    
    85   81   82 1    
    86   81   83 1    
@<TRIPOS>SUBSTRUCTURE
     1 UNK         1 GROUP             0       ****    0 ROOT    
@<TRIPOS>MOLECULE
Cpd1-2000
95   95    1
SMALL
USER_CHARGES


@<TRIPOS>ATOM
      1 C1          5.0749    1.2843   -1.8835 C.3       1 UNK         0.0000 
      2 H2          4.8704    1.5893   -0.8512 H         1 UNK         0.0000 
      3 H3          5.8710    1.9238   -2.2767 H         1 UNK         0.0000 
      4 H4          4.1745    1.4300   -2.4818 H         1 UNK         0.0000 
      5 C5          5.5359   -0.1697   -1.9129 C.3       1 UNK         0.0000 
      6 C6          6.8392   -0.3319   -1.1387 C.3       1 UNK         0.0000 
      7 H7          7.6302    0.2482   -1.6209 H         1 UNK         0.0000 
      8 H8          6.7216    0.0244   -0.1110 H         1 UNK         0.0000 
      9 H9          7.1395   -1.3830   -1.1142 H         1 UNK         0.0000 
     10 C10         5.6861   -0.7033   -3.3341 C.3       1 UNK         0.0000 
     11 H11         6.4785   -0.1471   -3.8433 H         1 UNK         0.0000 
     12 H12         5.9685   -1.7601   -3.3106 H         1 UNK         0.0000 
     13 H13         4.7594   -0.5905   -3.8980 H         1 UNK         0.0000 
     14 O14         4.6075   -1.0079   -1.1582 O.3       1 UNK         0.0000 
     15 C15         3.3143   -1.1071   -1.5119 C.2       1 UNK         0.0000 
     16 O16         2.7889   -0.5329   -2.4576 O.2       1 UNK         0.0000 
     17 N17         2.6648   -1.9584   -0.6767 N.am      1 UNK         0.0000 
     18 H18         3.1072   -2.2046    0.2158 H         1 UNK         0.0000 
     19 C19         1.2215   -2.0852   -0.7531 C.3       1 UNK         0.0000 
     20 C20         0.5803   -0.9087   -0.0004 C.2       1 UNK         0.0000 
     21 N21         0.1364    0.1135   -0.7530 N.am      1 UNK         0.0000 
     22 H22         0.2741    0.1083   -1.7580 H         1 UNK         0.0000 
     23 O23         0.5236   -0.8977    1.2343 O.2       1 UNK         0.0000 
     24 H24         0.9346   -2.0451   -1.8083 H         1 UNK         0.0000 
     25 C25         0.7831   -3.4256   -0.1440 C.3       1 UNK         0.0000 
     26 H26         1.1003   -3.4467    0.9034 H         1 UNK         0.0000 
     27 H27         1.3088   -4.2200   -0.6824 H         1 UNK         0.0000 
     28 C28        -0.7125   -3.5847   -0.2618 C.ar      1 UNK         0.0000 
     29 C29        -1.5531   -3.1940    0.7868 C.ar      1 UNK         0.0000 
     30 C30        -2.9290   -3.1110    0.5992 C.ar      1 UNK         0.0000 
     31 H31        -3.5872   -2.7506    1.3847 H         1 UNK         0.0000 
     32 H32        -1.1159   -2.8969    1.7360 H         1 UNK         0.0000 
     33 C33        -1.2909   -4.0011   -1.4658 C.ar      1 UNK         0.0000 
     34 H34        -0.6526   -4.3401   -2.2779 H         1 UNK         0.0000 
     35 C35        -2.6698   -3.9265   -1.6666 C.ar      1 UNK         0.0000 
     36 H36        -3.1161   -4.1855   -2.6215 H         1 UNK         0.0000 
     37 C37        -3.4651   -3.4193   -0.6468 C.ar      1 UNK         0.0000 
     38 O38        -4.8006   -3.0910   -0.8932 O.3       1 UNK         0.0000 
     39 C39        -4.9304   -1.7171   -1.0243 C.ar      1 UNK         0.0000 
     40 C40        -4.1106   -1.0261   -1.9199 C.ar      1 UNK         0.0000 
     41 C41        -4.1275    0.3584   -1.9281 C.ar      1 UNK         0.0000 
     42 H42        -3.4516    0.8870   -2.5927 H         1 UNK         0.0000 
     43 H43        -3.4284   -1.5698   -2.5636 H         1 UNK         0.0000 
     44 C44        -5.8431   -1.0402   -0.2183 C.ar      1 UNK         0.0000 
     45 H45        -6.4775   -1.6017    0.4593 H         1 UNK         0.0000 
     46 C46        -5.8695    0.3534   -0.2515 C.ar      1 UNK         0.0000 
     47 H47        -6.5388    0.9026    0.4040 H         1 UNK         0.0000 
     48 C48        -4.9831    1.0604   -1.0708 C.ar      1 UNK         0.0000 
     49 C49        -4.8977    2.5435   -0.9697 C.2       1 UNK         0.0000 
     50 O50        -5.8365    3.2242   -0.5970 O.2       1 UNK         0.0000 
     51 C51        -3.5472    3.1993   -1.2879 C.3       1 UNK         0.0000 
     52 H52        -3.3306    3.1183   -2.3575 H         1 UNK         0.0000 
     53 H53        -3.6299    4.2566   -1.0265 H         1 UNK         0.0000 
     54 N54        -2.4677    2.5670   -0.5569 N.am      1 UNK         0.0000 
     55 H55        -2.5110    2.5490    0.4672 H         1 UNK         0.0000 
     56 C56        -1.4564    1.8943   -1.1408 C.2       1 UNK         0.0000 
     57 O57        -1.3062    1.7740   -2.3580 O.2       1 UNK         0.0000 
     58 C58        -0.4724    1.2832   -0.1455 C.3       1 UNK         0.0000 
     59 H59        -1.0370    0.9429    0.7232 H         1 UNK         0.0000 
     60 C60         0.5484    2.3214    0.3521 C.3       1 UNK         0.0000 
     61 H61         1.1056    1.8546    1.1726 H         1 UNK         0.0000 
     62 H62        -0.0171    3.1520    0.7934 H         1 UNK         0.0000 
     63 C63         1.4975    2.8367   -0.7293 C.3       1 UNK         0.0000 
     64 H64         2.2018    2.0397   -1.0143 H         1 UNK         0.0000 
     65 H65         0.9234    3.0806   -1.6334 H         1 UNK         0.0000 
     66 C66         2.2860    4.0814   -0.3018 C.3       1 UNK         0.0000 
     67 C67         3.1481    3.8188    0.9344 C.3       1 UNK         0.0000 
     68 H68         3.7314    4.7067    1.1979 H         1 UNK         0.0000 
     69 H69         2.5462    3.5449    1.8065 H         1 UNK         0.0000 
     70 H70         3.8542    3.0015    0.7385 H         1 UNK         0.0000 
     71 H71         1.5556    4.8638   -0.0491 H         1 UNK         0.0000 
     72 C72         3.1493    4.5911   -1.4565 C.3       1 UNK         0.0000 
     73 H73         2.5441    4.7908   -2.3468 H         1 UNK         0.0000 
     74 H74         3.6679    5.5151   -1.1819 H         1 UNK         0.0000 
     75 H75         3.9086    3.8471   -1.7248 H         1 UNK         0.0000 
     76 C76         3.5228    0.2272    1.8740 C.3       1 UNK         0.0000 
     77 H77         2.7510    0.2955    1.1049 H         1 UNK         0.0000 
     78 H78         4.5053    0.0744    1.4194 H         1 UNK         0.0000 
     79 H79         3.5079    1.1227    2.4997 H         1 UNK         0.0000 
     80 S80         3.1354   -1.2072    2.9028 S.3       1 UNK         0.0000 
     81 C81         4.5685   -1.0925    3.9951 C.3       1 UNK         0.0000 
     82 H82         4.4991   -0.1741    4.5813 H         1 UNK         0.0000 
     83 H83         5.4767   -1.1067    3.3890 H         1 UNK         0.0000 
     84 H84         4.5374   -1.9592    4.6560 H         1 UNK         0.0000 
     85 O85         3.4199   -2.4359    2.0231 O.2       1 UNK         0.0000 
     86 C86        -0.7685    0.8362    3.8136 C.3       1 UNK         0.0000 
     87 H87        -0.2194    0.5416    2.9140 H         1 UNK         0.0000 
     88 H88        -0.8183    0.0075    4.5237 H         1 UNK         0.0000 
     89 H89        -0.3155    1.7071    4.2889 H         1 UNK         0.0000 
     90 S90        -2.4514    1.3039    3.3561 S.3       1 UNK         0.0000 
     91 C91        -2.8932   -0.2139    2.4768 C.3       1 UNK         0.0000 
     92 H92        -3.8150   -0.0105    1.9265 H         1 UNK         0.0000 
     93 H93        -3.0642   -0.9995    3.2170 H         1 UNK         0.0000 
     94 H94        -2.0865   -0.5005    1.7966 H         1 UNK         0.0000 
     95 O95        -2.2887    2.3889    2.2792 O.2       1 UNK         0.0000 
@<TRIPOS>BOND
     1    1    2 1    
     2    1    3 1    
     3    1    4 1    
     4    1    5 1    
     5    5   14 1    
     6    5    6 1    
     7    5   10 1    
     8    6    9 1    
     9    6    8 1    
    10    6    7 1    
    11   10   12 1    
    12   10   11 1    
    13   10   13 1    
    14   14   15 1    
    15   15   17 am   BACKBONE|DICT|INTERRES
    16   15   16 2    
    17   17   18 1    
    18   17   19 1    
    19   19   24 1    
    20   19   25 1    
    21   19   20 1    
    22   20   23 2    
    23   20   21 am   BACKBONE|DICT|INTERRES
    24   21   58 1    
    25   21   22 1    
    26   25   26 1    
    27   25   27 1    
    28   25   28 1    
    29   28   29 ar   
    30   28   33 ar   
    31   29   32 1    
    32   29   30 ar   
    33   30   31 1    
    34   30   37 ar   
    35   33   34 1    
    36   33   35 ar   
    37   35   37 ar   
    38   35   36 1    
    39   37   38 1    
    40   38   39 1    
    41   39   44 ar   
    42   39   40 ar   
    43   40   41 ar   
    44   40   43 1    
    45   41   48 ar   
    46   41   42 1    
    47   44   45 1    
    48   44   46 ar   
    49   46   47 1    
    50   46   48 ar   
    51   48   49 1    
    52   49   50 2    
    53   49   51 1    
    54   51   53 1    
    55   51   54 1    
    56   51   52 1    
    57   54   55 1    
    58   54   56 am   BACKBONE|DICT|INTERRES
    59   56   58 1    
    60   56   57 2    
    61   58   60 1    
    62   58   59 1    
    63   60   62 1    
    64   60   61 1    
    65   60   63 1    
    66   63   66 1    
    67   63   64 1    
    68   63   65 1    
    69   66   71 1    
    70   66   67 1    
    71   66   72 1    
    72   67   68 1    
    73   67   69 1    
    74   67   70 1    
    75   72   74 1    
    76   72   73 1    
    77   72   75 1    
    78   76   79 1    
    79   76   80 1    
    80   76   77 1    
    81   76   78 1    
    82   80   81 1    
    83   80   85 2    
    84   81   82 1    
    85   81   84 1    
    86   81   83 1    
    87   86   89 1    
    88   86   88 1    
    89   86   87 1    
    90   86   90 1    
    91   90   91 1    
    92   90   95 2    
    93   91   93 1    
    94   91   92 1    
    95   91   94 1    
@<TRIPOS>SUBSTRUCTURE
     1 UNK         1 GROUP             0       ****    0 ROOT    
@<TRIPOS>MOLECULE
Cpd1-2500
95   95    1
SMALL
USER_CHARGES


@<TRIPOS>ATOM
      1 C1          4.3290    2.2818   -1.4768 C.3       1 UNK         0.0000 
      2 H2          5.0174    3.0336   -1.8750 H         1 UNK         0.0000 
      3 H3          3.3042    2.6221   -1.6297 H         1 UNK         0.0000 
      4 H4          4.5170    2.1810   -0.4043 H         1 UNK         0.0000 
      5 C5          4.5859    0.9545   -2.1842 C.3       1 UNK         0.0000 
      6 C6          6.0184    0.4929   -1.9413 C.3       1 UNK         0.0000 
      7 H7          6.1976   -0.4700   -2.4278 H         1 UNK         0.0000 
      8 H8          6.7179    1.2280   -2.3476 H         1 UNK         0.0000 
      9 H9          6.2067    0.3864   -0.8686 H         1 UNK         0.0000 
     10 C10         4.2934    1.0362   -3.6797 C.3       1 UNK         0.0000 
     11 H11         3.2784    1.3914   -3.8667 H         1 UNK         0.0000 
     12 H12         4.9978    1.7318   -4.1448 H         1 UNK         0.0000 
     13 H13         4.4230    0.0539   -4.1440 H         1 UNK         0.0000 
     14 O14         3.7973   -0.1216   -1.5843 O.3       1 UNK         0.0000 
     15 C15         2.4544   -0.1244   -1.6709 C.2       1 UNK         0.0000 
     16 O16         1.7698    0.8360   -2.0083 O.2       1 UNK         0.0000 
     17 N17         1.9573   -1.3376   -1.3412 N.am      1 UNK         0.0000 
     18 H18         2.5923   -2.0596   -0.9736 H         1 UNK         0.0000 
     19 C19         0.5273   -1.5463   -1.2036 C.3       1 UNK         0.0000 
     20 C20         0.1473   -1.2848    0.2636 C.2       1 UNK         0.0000 
     21 N21        -0.3764   -0.0634    0.5231 N.am      1 UNK         0.0000 
     22 H22        -0.3951    0.6317   -0.2305 H         1 UNK         0.0000 
     23 O23         0.3813   -2.1313    1.1270 O.2       1 UNK         0.0000 
     24 H24         0.0234   -0.8214   -1.8500 H         1 UNK         0.0000 
     25 C25         0.1564   -2.9747   -1.6263 C.3       1 UNK         0.0000 
     26 H26         0.6686   -3.6821   -0.9667 H         1 UNK         0.0000 
     27 H27         0.5230   -3.1244   -2.6468 H         1 UNK         0.0000 
     28 C28        -1.3396   -3.1518   -1.5541 C.ar      1 UNK         0.0000 
     29 C29        -1.9455   -3.8242   -0.4901 C.ar      1 UNK         0.0000 
     30 C30        -3.3287   -3.7767   -0.3063 C.ar      1 UNK         0.0000 
     31 H31        -3.7970   -4.2472    0.5523 H         1 UNK         0.0000 
     32 H32        -1.3254   -4.3396    0.2377 H         1 UNK         0.0000 
     33 C33        -2.1551   -2.5141   -2.4973 C.ar      1 UNK         0.0000 
     34 H34        -1.7016   -2.0179   -3.3521 H         1 UNK         0.0000 
     35 C35        -3.5328   -2.4513   -2.3234 C.ar      1 UNK         0.0000 
     36 H36        -4.1609   -1.9009   -3.0168 H         1 UNK         0.0000 
     37 C37        -4.0993   -3.0372   -1.1942 C.ar      1 UNK         0.0000 
     38 O38        -5.4366   -2.7535   -0.8870 O.3       1 UNK         0.0000 
     39 C39        -5.4795   -1.4639   -0.3647 C.ar      1 UNK         0.0000 
     40 C40        -5.9272   -0.4155   -1.1641 C.ar      1 UNK         0.0000 
     41 C41        -5.7321    0.8921   -0.7270 C.ar      1 UNK         0.0000 
     42 H42        -6.0138    1.7293   -1.3580 H         1 UNK         0.0000 
     43 H43        -6.3521   -0.6278   -2.1395 H         1 UNK         0.0000 
     44 C44        -4.9597   -1.2333    0.9090 C.ar      1 UNK         0.0000 
     45 H45        -4.6559   -2.0719    1.5260 H         1 UNK         0.0000 
     46 C46        -4.7481    0.0721    1.3279 C.ar      1 UNK         0.0000 
     47 H47        -4.2844    0.2521    2.2938 H         1 UNK         0.0000 
     48 C48        -5.0907    1.1410    0.4908 C.ar      1 UNK         0.0000 
     49 C49        -4.6992    2.5365    0.8287 C.2       1 UNK         0.0000 
     50 O50        -5.2916    3.5000    0.3740 O.2       1 UNK         0.0000 
     51 C51        -3.4911    2.7541    1.7428 C.3       1 UNK         0.0000 
     52 H52        -3.2435    3.8175    1.6905 H         1 UNK         0.0000 
     53 H53        -3.7759    2.5154    2.7729 H         1 UNK         0.0000 
     54 N54        -2.3353    1.9462    1.4032 N.am      1 UNK         0.0000 
     55 H55        -1.8405    2.1508    0.5302 H         1 UNK         0.0000 
     56 C56        -1.7912    1.0710    2.2756 C.2       1 UNK         0.0000 
     57 O57        -2.2858    0.8271    3.3789 O.2       1 UNK         0.0000 
     58 C58        -0.4553    0.4285    1.8928 C.3       1 UNK         0.0000 
     59 H59        -0.3576   -0.4429    2.5427 H         1 UNK         0.0000 
     60 C60         0.6845    1.4175    2.2027 C.3       1 UNK         0.0000 
     61 H61         0.5305    1.7980    3.2189 H         1 UNK         0.0000 
     62 H62         0.6102    2.2770    1.5213 H         1 UNK         0.0000 
     63 C63         2.0579    0.7651    2.0742 C.3       1 UNK         0.0000 
     64 H64         2.1510   -0.0327    2.8264 H         1 UNK         0.0000 
     65 H65         2.1371    0.2711    1.0963 H         1 UNK         0.0000 
     66 C66         3.2390    1.7293    2.2166 C.3       1 UNK         0.0000 
     67 C67         3.2367    2.4612    3.5600 C.3       1 UNK         0.0000 
     68 H68         2.3642    3.1114    3.6722 H         1 UNK         0.0000 
     69 H69         3.2302    1.7390    4.3861 H         1 UNK         0.0000 
     70 H70         4.1313    3.0834    3.6642 H         1 UNK         0.0000 
     71 H71         3.1532    2.4795    1.4157 H         1 UNK         0.0000 
     72 C72         4.5489    0.9616    2.0267 C.3       1 UNK         0.0000 
     73 H73         5.4120    1.6361    2.0202 H         1 UNK         0.0000 
     74 H74         4.6875    0.2452    2.8467 H         1 UNK         0.0000 
     75 H75         4.5435    0.3985    1.0855 H         1 UNK         0.0000 
     76 C76         5.1738   -2.7682    2.0124 C.3       1 UNK         0.0000 
     77 H77         5.2298   -2.4391    3.0522 H         1 UNK         0.0000 
     78 H78         5.7933   -2.1253    1.3849 H         1 UNK         0.0000 
     79 H79         5.4794   -3.8117    1.9128 H         1 UNK         0.0000 
     80 S80         3.4751   -2.5994    1.4294 S.3       1 UNK         0.0000 
     81 C81         2.6989   -3.7863    2.5383 C.3       1 UNK         0.0000 
     82 H82         2.7898   -3.4232    3.5642 H         1 UNK         0.0000 
     83 H83         3.1900   -4.7541    2.4169 H         1 UNK         0.0000 
     84 H84         1.6503   -3.8302    2.2443 H         1 UNK         0.0000 
     85 O85         3.4699   -3.2746    0.0442 O.2       1 UNK         0.0000 
     86 C86        -0.2839    4.9052   -0.6923 C.3       1 UNK         0.0000 
     87 H87         0.4746    5.6687   -0.8771 H         1 UNK         0.0000 
     88 H88        -0.5383    4.8830    0.3686 H         1 UNK         0.0000 
     89 H89        -1.1762    5.0797   -1.2969 H         1 UNK         0.0000 
     90 S90         0.3974    3.2885   -1.1096 S.3       1 UNK         0.0000 
     91 C91         0.6073    3.5414   -2.8789 C.3       1 UNK         0.0000 
     92 H92         1.3494    4.3278   -3.0334 H         1 UNK         0.0000 
     93 H93        -0.3582    3.8208   -3.3054 H         1 UNK         0.0000 
     94 H94         0.9649    2.5946   -3.2822 H         1 UNK         0.0000 
     95 O95        -0.8094    2.3311   -0.9868 O.2       1 UNK         0.0000 
@<TRIPOS>BOND
     1    1    4 1    
     2    1    2 1    
     3    1    3 1    
     4    1    5 1    
     5    5    6 1    
     6    5   14 1    
     7    5   10 1    
     8    6    9 1    
     9    6    7 1    
    10    6    8 1    
    11   10   11 1    
    12   10   12 1    
    13   10   13 1    
    14   14   15 1    
    15   15   17 am   BACKBONE|DICT|INTERRES
    16   15   16 2    
    17   17   19 1    
    18   17   18 1    
    19   19   24 1    
    20   19   20 1    
    21   19   25 1    
    22   20   21 am   BACKBONE|DICT|INTERRES
    23   20   23 2    
    24   21   58 1    
    25   21   22 1    
    26   25   28 1    
    27   25   26 1    
    28   25   27 1    
    29   28   29 ar   
    30   28   33 ar   
    31   29   30 ar   
    32   29   32 1    
    33   30   31 1    
    34   30   37 ar   
    35   33   35 ar   
    36   33   34 1    
    37   35   37 ar   
    38   35   36 1    
    39   37   38 1    
    40   38   39 1    
    41   39   44 ar   
    42   39   40 ar   
    43   40   41 ar   
    44   40   43 1    
    45   41   48 ar   
    46   41   42 1    
    47   44   46 ar   
    48   44   45 1    
    49   46   47 1    
    50   46   48 ar   
    51   48   49 1    
    52   49   51 1    
    53   49   50 2    
    54   51   53 1    
    55   51   52 1    
    56   51   54 1    
    57   54   56 am   BACKBONE|DICT|INTERRES
    58   54   55 1    
    59   56   57 2    
    60   56   58 1    
    61   58   60 1    
    62   58   59 1    
    63   60   61 1    
    64   60   62 1    
    65   60   63 1    
    66   63   66 1    
    67   63   64 1    
    68   63   65 1    
    69   66   67 1    
    70   66   71 1    
    71   66   72 1    
    72   67   70 1    
    73   67   68 1    
    74   67   69 1    
    75   72   74 1    
    76   72   73 1    
    77   72   75 1    
    78   76   77 1    
    79   76   78 1    
    80   76   79 1    
    81   76   80 1    
    82   80   81 1    
    83   80   85 2    
    84   81   82 1    
    85   81   83 1    
    86   81   84 1    
    87   86   88 1    
    88   86   87 1    
    89   86   89 1    
    90   86   90 1    
    91   90   95 2    
    92   90   91 1    
    93   91   92 1    
    94   91   93 1    
    95   91   94 1    
@<TRIPOS>SUBSTRUCTURE
     1 UNK         1 GROUP             0       ****    0 ROOT    
@<TRIPOS>MOLECULE
Cpd1-3000
95   95    1
SMALL
USER_CHARGES


@<TRIPOS>ATOM
      1 C1         -4.2885   -2.6694   -1.3262 C.3       1 UNK         0.0000 
      2 H2         -4.4361   -2.4817   -0.2588 H         1 UNK         0.0000 
      3 H3         -4.9957   -3.4441   -1.6377 H         1 UNK         0.0000 
      4 H4         -3.2740   -3.0316   -1.4914 H         1 UNK         0.0000 
      5 C5         -4.5637   -1.4007   -2.1279 C.3       1 UNK         0.0000 
      6 C6         -6.0168   -0.9719   -1.9573 C.3       1 UNK         0.0000 
      7 H7         -6.2065   -0.0409   -2.4986 H         1 UNK         0.0000 
      8 H8         -6.6801   -1.7478   -2.3482 H         1 UNK         0.0000 
      9 H9         -6.2460   -0.8168   -0.8985 H         1 UNK         0.0000 
     10 C10        -4.2184   -1.5719   -3.6039 C.3       1 UNK         0.0000 
     11 H11        -3.1753   -1.8684   -3.7316 H         1 UNK         0.0000 
     12 H12        -4.8561   -2.3486   -4.0356 H         1 UNK         0.0000 
     13 H13        -4.3976   -0.6381   -4.1451 H         1 UNK         0.0000 
     14 O14        -3.8285   -0.2586   -1.5867 O.3       1 UNK         0.0000 
     15 C15        -2.4833   -0.2131   -1.6284 C.2       1 UNK         0.0000 
     16 O16        -1.7511   -1.1826   -1.8011 O.2       1 UNK         0.0000 
     17 N17        -2.0500    1.0563   -1.4563 N.am      1 UNK         0.0000 
     18 H18        -2.7307    1.7813   -1.1917 H         1 UNK         0.0000 
     19 C19        -0.6401    1.3541   -1.2780 C.3       1 UNK         0.0000 
     20 C20        -0.3112    1.2247    0.2183 C.2       1 UNK         0.0000 
     21 N21         0.2904    0.0684    0.5765 N.am      1 UNK         0.0000 
     22 H22         0.4425   -0.6314   -0.1563 H         1 UNK         0.0000 
     23 O23        -0.6511    2.1027    1.0128 O.2       1 UNK         0.0000 
     24 H24        -0.0661    0.6139   -1.8451 H         1 UNK         0.0000 
     25 C25        -0.3364    2.7692   -1.7888 C.3       1 UNK         0.0000 
     26 H26        -0.9244    3.4850   -1.2059 H         1 UNK         0.0000 
     27 H27        -0.6597    2.8239   -2.8332 H         1 UNK         0.0000 
     28 C28         1.1398    3.0483   -1.6603 C.ar      1 UNK         0.0000 
     29 C29         1.6488    3.8120   -0.6070 C.ar      1 UNK         0.0000 
     30 C30         3.0217    3.8678   -0.3596 C.ar      1 UNK         0.0000 
     31 H31         3.4170    4.4103    0.4933 H         1 UNK         0.0000 
     32 H32         0.9616    4.3189    0.0645 H         1 UNK         0.0000 
     33 C33         2.0391    2.4199   -2.5305 C.ar      1 UNK         0.0000 
     34 H34         1.6604    1.8500   -3.3757 H         1 UNK         0.0000 
     35 C35         3.4082    2.4619   -2.2938 C.ar      1 UNK         0.0000 
     36 H36         4.1029    1.9223   -2.9295 H         1 UNK         0.0000 
     37 C37         3.8808    3.1417   -1.1740 C.ar      1 UNK         0.0000 
     38 O38         5.2191    2.9699   -0.7948 O.3       1 UNK         0.0000 
     39 C39         5.3282    1.7060   -0.2220 C.ar      1 UNK         0.0000 
     40 C40         5.8742    0.6630   -0.9649 C.ar      1 UNK         0.0000 
     41 C41         5.7383   -0.6394   -0.4919 C.ar      1 UNK         0.0000 
     42 H42         6.0948   -1.4778   -1.0821 H         1 UNK         0.0000 
     43 H43         6.3267    0.8698   -1.9290 H         1 UNK         0.0000 
     44 C44         4.7727    1.4860    1.0387 C.ar      1 UNK         0.0000 
     45 H45         4.3945    2.3246    1.6135 H         1 UNK         0.0000 
     46 C46         4.6205    0.1840    1.4927 C.ar      1 UNK         0.0000 
     47 H47         4.1309    0.0050    2.4462 H         1 UNK         0.0000 
     48 C48         5.0595   -0.8879    0.7053 C.ar      1 UNK         0.0000 
     49 C49         4.7267   -2.2929    1.0637 C.2       1 UNK         0.0000 
     50 O50         5.3962   -3.2340    0.6737 O.2       1 UNK         0.0000 
     51 C51         3.4806   -2.5554    1.9116 C.3       1 UNK         0.0000 
     52 H52         3.2685   -3.6254    1.8356 H         1 UNK         0.0000 
     53 H53         3.7081   -2.3237    2.9574 H         1 UNK         0.0000 
     54 N54         2.3197   -1.7750    1.5286 N.am      1 UNK         0.0000 
     55 H55         1.9523   -1.9018    0.5802 H         1 UNK         0.0000 
     56 C56         1.6947   -0.9558    2.4010 C.2       1 UNK         0.0000 
     57 O57         2.1069   -0.7593    3.5470 O.2       1 UNK         0.0000 
     58 C58         0.3669   -0.3282    1.9741 C.3       1 UNK         0.0000 
     59 H59         0.2668    0.5845    2.5648 H         1 UNK         0.0000 
     60 C60        -0.7670   -1.3019    2.3556 C.3       1 UNK         0.0000 
     61 H61        -0.6258   -1.5755    3.4071 H         1 UNK         0.0000 
     62 H62        -0.6581   -2.2224    1.7654 H         1 UNK         0.0000 
     63 C63        -2.1543   -0.7052    2.1370 C.3       1 UNK         0.0000 
     64 H64        -2.2878    0.1643    2.7979 H         1 UNK         0.0000 
     65 H65        -2.2299   -0.3205    1.1112 H         1 UNK         0.0000 
     66 C66        -3.3053   -1.6913    2.3604 C.3       1 UNK         0.0000 
     67 C67        -3.3159   -2.2657    3.7785 C.3       1 UNK         0.0000 
     68 H68        -2.4247   -2.8645    3.9869 H         1 UNK         0.0000 
     69 H69        -3.3600   -1.4545    4.5160 H         1 UNK         0.0000 
     70 H70        -4.1903   -2.9064    3.9306 H         1 UNK         0.0000 
     71 H71        -3.1697   -2.5249    1.6539 H         1 UNK         0.0000 
     72 C72        -4.6376   -1.0057    2.0507 C.3       1 UNK         0.0000 
     73 H73        -4.8269   -0.2051    2.7773 H         1 UNK         0.0000 
     74 H74        -4.6276   -0.5569    1.0501 H         1 UNK         0.0000 
     75 H75        -5.4728   -1.7124    2.1038 H         1 UNK         0.0000 
     76 C76        -5.4647    2.6593    1.6186 C.3       1 UNK         0.0000 
     77 H77        -6.0351    1.9370    1.0322 H         1 UNK         0.0000 
     78 H78        -5.7999    3.6766    1.4064 H         1 UNK         0.0000 
     79 H79        -5.5549    2.4293    2.6823 H         1 UNK         0.0000 
     80 S80        -3.7377    2.4995    1.1220 S.3       1 UNK         0.0000 
     81 C81        -3.0493    3.8069    2.1506 C.3       1 UNK         0.0000 
     82 H82        -1.9921    3.8653    1.8921 H         1 UNK         0.0000 
     83 H83        -3.1678    3.5305    3.2004 H         1 UNK         0.0000 
     84 H84        -3.5694    4.7406    1.9267 H         1 UNK         0.0000 
     85 O85        -3.6950    3.0516   -0.3160 O.2       1 UNK         0.0000 
     86 C86        -0.4608   -3.7978   -0.7188 C.3       1 UNK         0.0000 
     87 H87        -1.2140   -3.0416   -0.4896 H         1 UNK         0.0000 
     88 H88         0.1203   -4.0696    0.1660 H         1 UNK         0.0000 
     89 H89        -0.9302   -4.6777   -1.1643 H         1 UNK         0.0000 
     90 S90         0.6424   -3.0444   -1.9284 S.3       1 UNK         0.0000 
     91 C91         1.8789   -4.3549   -2.0004 C.3       1 UNK         0.0000 
     92 H92         2.2600   -4.5362   -0.9929 H         1 UNK         0.0000 
     93 H93         2.6783   -4.0062   -2.6547 H         1 UNK         0.0000 
     94 H94         1.4201   -5.2538   -2.4168 H         1 UNK         0.0000 
     95 O95         1.3521   -1.9060   -1.1636 O.2       1 UNK         0.0000 
@<TRIPOS>BOND
     1    1    2 1    
     2    1    3 1    
     3    1    4 1    
     4    1    5 1    
     5    5    6 1    
     6    5   14 1    
     7    5   10 1    
     8    6    9 1    
     9    6    7 1    
    10    6    8 1    
    11   10   11 1    
    12   10   12 1    
    13   10   13 1    
    14   14   15 1    
    15   15   17 am   BACKBONE|DICT|INTERRES
    16   15   16 2    
    17   17   19 1    
    18   17   18 1    
    19   19   24 1    
    20   19   20 1    
    21   19   25 1    
    22   20   21 am   BACKBONE|DICT|INTERRES
    23   20   23 2    
    24   21   58 1    
    25   21   22 1    
    26   25   28 1    
    27   25   26 1    
    28   25   27 1    
    29   28   29 ar   
    30   28   33 ar   
    31   29   30 ar   
    32   29   32 1    
    33   30   31 1    
    34   30   37 ar   
    35   33   35 ar   
    36   33   34 1    
    37   35   37 ar   
    38   35   36 1    
    39   37   38 1    
    40   38   39 1    
    41   39   44 ar   
    42   39   40 ar   
    43   40   41 ar   
    44   40   43 1    
    45   41   48 ar   
    46   41   42 1    
    47   44   46 ar   
    48   44   45 1    
    49   46   47 1    
    50   46   48 ar   
    51   48   49 1    
    52   49   51 1    
    53   49   50 2    
    54   51   53 1    
    55   51   52 1    
    56   51   54 1    
    57   54   56 am   BACKBONE|DICT|INTERRES
    58   54   55 1    
    59   56   57 2    
    60   56   58 1    
    61   58   60 1    
    62   58   59 1    
    63   60   61 1    
    64   60   62 1    
    65   60   63 1    
    66   63   66 1    
    67   63   64 1    
    68   63   65 1    
    69   66   67 1    
    70   66   71 1    
    71   66   72 1    
    72   67   70 1    
    73   67   68 1    
    74   67   69 1    
    75   72   75 1    
    76   72   73 1    
    77   72   74 1    
    78   76   79 1    
    79   76   77 1    
    80   76   78 1    
    81   76   80 1    
    82   80   81 1    
    83   80   85 2    
    84   81   83 1    
    85   81   82 1    
    86   81   84 1    
    87   86   87 1    
    88   86   88 1    
    89   86   89 1    
    90   86   90 1    
    91   90   95 2    
    92   90   91 1    
    93   91   92 1    
    94   91   93 1    
    95   91   94 1    
@<TRIPOS>SUBSTRUCTURE
     1 UNK         1 GROUP             0       ****    0 ROOT    
@<TRIPOS>MOLECULE
Cpd1-3500
95   95    1
SMALL
USER_CHARGES


@<TRIPOS>ATOM
      1 C1          4.9003    1.4660   -2.5430 C.3       1 UNK         0.0000 
      2 H2          3.9373    1.4181   -3.0517 H         1 UNK         0.0000 
      3 H3          4.8055    2.0924   -1.6512 H         1 UNK         0.0000 
      4 H4          5.6330    1.9324   -3.2086 H         1 UNK         0.0000 
      5 C5          5.4008    0.0781   -2.1544 C.3       1 UNK         0.0000 
      6 C6          6.7519    0.1820   -1.4558 C.3       1 UNK         0.0000 
      7 H7          6.6903    0.8592   -0.5980 H         1 UNK         0.0000 
      8 H8          7.0806   -0.8013   -1.1071 H         1 UNK         0.0000 
      9 H9          7.4968    0.5756   -2.1521 H         1 UNK         0.0000 
     10 C10         5.4851   -0.8659   -3.3497 C.3       1 UNK         0.0000 
     11 H11         6.2285   -0.4845   -4.0555 H         1 UNK         0.0000 
     12 H12         5.8010   -1.8610   -3.0219 H         1 UNK         0.0000 
     13 H13         4.5248   -0.9428   -3.8616 H         1 UNK         0.0000 
     14 O14         4.5467   -0.5119   -1.1208 O.3       1 UNK         0.0000 
     15 C15         3.2585   -0.8088   -1.3781 C.2       1 UNK         0.0000 
     16 O16         2.6387   -0.4540   -2.3758 O.2       1 UNK         0.0000 
     17 N17         2.7246   -1.5450   -0.3773 N.am      1 UNK         0.0000 
     18 H18         3.2965   -1.8268    0.4304 H         1 UNK         0.0000 
     19 C19         1.3117   -1.8821   -0.3954 C.3       1 UNK         0.0000 
     20 C20         0.5252   -0.6646    0.1257 C.2       1 UNK         0.0000 
     21 N21         0.0979    0.1821   -0.8373 N.am      1 UNK         0.0000 
     22 H22         0.4213    0.0165   -1.7859 H         1 UNK         0.0000 
     23 O23         0.3599   -0.4727    1.3303 O.2       1 UNK         0.0000 
     24 H24         1.0237   -2.0772   -1.4341 H         1 UNK         0.0000 
     25 C25         1.0413   -3.1326    0.4504 C.3       1 UNK         0.0000 
     26 H26         1.3182   -2.9278    1.4888 H         1 UNK         0.0000 
     27 H27         1.6828   -3.9363    0.0751 H         1 UNK         0.0000 
     28 C28        -0.4194   -3.4969    0.3389 C.ar      1 UNK         0.0000 
     29 C29        -1.3323   -3.0853    1.3159 C.ar      1 UNK         0.0000 
     30 C30        -2.7015   -3.1756    1.0879 C.ar      1 UNK         0.0000 
     31 H31        -3.4221   -2.8049    1.8103 H         1 UNK         0.0000 
     32 H32        -0.9648   -2.6301    2.2310 H         1 UNK         0.0000 
     33 C33        -0.9078   -4.1180   -0.8162 C.ar      1 UNK         0.0000 
     34 H34        -0.2094   -4.4791   -1.5673 H         1 UNK         0.0000 
     35 C35        -2.2786   -4.2128   -1.0590 C.ar      1 UNK         0.0000 
     36 H36        -2.6601   -4.6244   -1.9881 H         1 UNK         0.0000 
     37 C37        -3.1568   -3.6713   -0.1291 C.ar      1 UNK         0.0000 
     38 O38        -4.5045   -3.4891   -0.4531 O.3       1 UNK         0.0000 
     39 C39        -4.7377   -2.1600   -0.7659 C.ar      1 UNK         0.0000 
     40 C40        -3.9314   -1.5128   -1.7062 C.ar      1 UNK         0.0000 
     41 C41        -4.0690   -0.1484   -1.8994 C.ar      1 UNK         0.0000 
     42 H42        -3.4088    0.3486   -2.6030 H         1 UNK         0.0000 
     43 H43        -3.1692   -2.0657   -2.2431 H         1 UNK         0.0000 
     44 C44        -5.7515   -1.4732   -0.0994 C.ar      1 UNK         0.0000 
     45 H45        -6.3764   -2.0011    0.6131 H         1 UNK         0.0000 
     46 C46        -5.8940   -0.1039   -0.3147 C.ar      1 UNK         0.0000 
     47 H47        -6.6490    0.4565    0.2292 H         1 UNK         0.0000 
     48 C48        -5.0262    0.5763   -1.1784 C.ar      1 UNK         0.0000 
     49 C49        -5.0692    2.0626   -1.2570 C.2       1 UNK         0.0000 
     50 O50        -6.0475    2.6978   -0.9019 O.2       1 UNK         0.0000 
     51 C51        -3.8084    2.7984   -1.7300 C.3       1 UNK         0.0000 
     52 H52        -3.6165    2.5799   -2.7849 H         1 UNK         0.0000 
     53 H53        -4.0021    3.8681   -1.6222 H         1 UNK         0.0000 
     54 N54        -2.6392    2.4074   -0.9658 N.am      1 UNK         0.0000 
     55 H55        -2.6223    2.5955    0.0455 H         1 UNK         0.0000 
     56 C56        -1.5634    1.8069   -1.5120 C.2       1 UNK         0.0000 
     57 O57        -1.4588    1.5260   -2.7081 O.2       1 UNK         0.0000 
     58 C58        -0.4242    1.5058   -0.5391 C.3       1 UNK         0.0000 
     59 H59        -0.7982    1.4900    0.4875 H         1 UNK         0.0000 
     60 C60         0.6525    2.5979   -0.6672 C.3       1 UNK         0.0000 
     61 H61         0.1783    3.5547   -0.4188 H         1 UNK         0.0000 
     62 H62         0.9777    2.6554   -1.7150 H         1 UNK         0.0000 
     63 C63         1.8585    2.3438    0.2343 C.3       1 UNK         0.0000 
     64 H64         1.5244    2.2294    1.2766 H         1 UNK         0.0000 
     65 H65         2.3163    1.3862   -0.0546 H         1 UNK         0.0000 
     66 C66         2.9364    3.4318    0.1668 C.3       1 UNK         0.0000 
     67 C67         2.4335    4.7801    0.6881 C.3       1 UNK         0.0000 
     68 H68         1.6133    5.1772    0.0837 H         1 UNK         0.0000 
     69 H69         2.0767    4.6783    1.7204 H         1 UNK         0.0000 
     70 H70         3.2387    5.5214    0.6819 H         1 UNK         0.0000 
     71 H71         3.2222    3.5569   -0.8880 H         1 UNK         0.0000 
     72 C72         4.1714    2.9871    0.9528 C.3       1 UNK         0.0000 
     73 H73         4.9896    3.7076    0.8532 H         1 UNK         0.0000 
     74 H74         3.9315    2.8944    2.0195 H         1 UNK         0.0000 
     75 H75         4.5323    2.0114    0.6055 H         1 UNK         0.0000 
     76 C76        -2.8832    0.1060    2.0140 C.3       1 UNK         0.0000 
     77 H77        -3.3348    0.1471    1.0166 H         1 UNK         0.0000 
     78 H78        -3.4044   -0.6181    2.6439 H         1 UNK         0.0000 
     79 H79        -1.8207   -0.1450    1.9454 H         1 UNK         0.0000 
     80 S80        -3.0073    1.7195    2.8137 S.3       1 UNK         0.0000 
     81 C81        -4.7895    1.9511    2.6582 C.3       1 UNK         0.0000 
     82 H82        -5.3042    1.1624    3.2107 H         1 UNK         0.0000 
     83 H83        -5.0566    1.9256    1.5990 H         1 UNK         0.0000 
     84 H84        -5.0277    2.9254    3.0856 H         1 UNK         0.0000 
     85 O85        -2.3847    2.7263    1.8294 O.2       1 UNK         0.0000 
     86 C86         3.1290   -0.0849    2.8824 C.3       1 UNK         0.0000 
     87 H87         2.1996   -0.5598    3.1984 H         1 UNK         0.0000 
     88 H88         3.0318    0.2434    1.8444 H         1 UNK         0.0000 
     89 H89         3.3792    0.7499    3.5407 H         1 UNK         0.0000 
     90 S90         4.4347   -1.3250    2.9914 S.3       1 UNK         0.0000 
     91 C91         5.7338   -0.3803    2.1701 C.3       1 UNK         0.0000 
     92 H92         5.9264    0.5384    2.7283 H         1 UNK         0.0000 
     93 H93         5.3928   -0.1697    1.1526 H         1 UNK         0.0000 
     94 H94         6.6291   -1.0030    2.1490 H         1 UNK         0.0000 
     95 O95         4.0445   -2.4152    1.9768 O.2       1 UNK         0.0000 
@<TRIPOS>BOND
     1    1    5 1    
     2    1    3 1    
     3    1    2 1    
     4    1    4 1    
     5    5    6 1    
     6    5   14 1    
     7    5   10 1    
     8    6    8 1    
     9    6    7 1    
    10    6    9 1    
    11   10   12 1    
    12   10   11 1    
    13   10   13 1    
    14   14   15 1    
    15   15   17 am   BACKBONE|DICT|INTERRES
    16   15   16 2    
    17   17   18 1    
    18   17   19 1    
    19   19   24 1    
    20   19   20 1    
    21   19   25 1    
    22   20   23 2    
    23   20   21 am   BACKBONE|DICT|INTERRES
    24   21   58 1    
    25   21   22 1    
    26   25   26 1    
    27   25   27 1    
    28   25   28 1    
    29   28   29 ar   
    30   28   33 ar   
    31   29   32 1    
    32   29   30 ar   
    33   30   31 1    
    34   30   37 ar   
    35   33   34 1    
    36   33   35 ar   
    37   35   37 ar   
    38   35   36 1    
    39   37   38 1    
    40   38   39 1    
    41   39   44 ar   
    42   39   40 ar   
    43   40   41 ar   
    44   40   43 1    
    45   41   48 ar   
    46   41   42 1    
    47   44   45 1    
    48   44   46 ar   
    49   46   47 1    
    50   46   48 ar   
    51   48   49 1    
    52   49   50 2    
    53   49   51 1    
    54   51   53 1    
    55   51   54 1    
    56   51   52 1    
    57   54   55 1    
    58   54   56 am   BACKBONE|DICT|INTERRES
    59   56   58 1    
    60   56   57 2    
    61   58   59 1    
    62   58   60 1    
    63   60   61 1    
    64   60   63 1    
    65   60   62 1    
    66   63   64 1    
    67   63   65 1    
    68   63   66 1    
    69   66   67 1    
    70   66   72 1    
    71   66   71 1    
    72   67   69 1    
    73   67   68 1    
    74   67   70 1    
    75   72   74 1    
    76   72   73 1    
    77   72   75 1    
    78   76   78 1    
    79   76   80 1    
    80   76   77 1    
    81   76   79 1    
    82   80   81 1    
    83   80   85 2    
    84   81   84 1    
    85   81   82 1    
    86   81   83 1    
    87   86   90 1    
    88   86   87 1    
    89   86   89 1    
    90   86   88 1    
    91   90   91 1    
    92   90   95 2    
    93   91   92 1    
    94   91   93 1    
    95   91   94 1    
@<TRIPOS>SUBSTRUCTURE
     1 UNK         1 GROUP             0       ****    0 ROOT    
@<TRIPOS>MOLECULE
Cpd1-4000
95   95    1
SMALL
USER_CHARGES


@<TRIPOS>ATOM
      1 C1          4.6545    1.5357   -1.8099 C.3       1 UNK         0.0000 
      2 H2          4.3903    1.8329   -0.7885 H         1 UNK         0.0000 
      3 H3          5.3398    2.2867   -2.2145 H         1 UNK         0.0000 
      4 H4          3.7505    1.5156   -2.4197 H         1 UNK         0.0000 
      5 C5          5.3532    0.1781   -1.7974 C.3       1 UNK         0.0000 
      6 C6          6.6577    0.2666   -1.0141 C.3       1 UNK         0.0000 
      7 H7          7.1145   -0.7226   -0.9166 H         1 UNK         0.0000 
      8 H8          7.3566    0.9249   -1.5364 H         1 UNK         0.0000 
      9 H9          6.4795    0.6778   -0.0155 H         1 UNK         0.0000 
     10 C10         5.6057   -0.3640   -3.2004 C.3       1 UNK         0.0000 
     11 H11         6.0704   -1.3529   -3.1424 H         1 UNK         0.0000 
     12 H12         4.6781   -0.4344   -3.7693 H         1 UNK         0.0000 
     13 H13         6.2913    0.3075   -3.7253 H         1 UNK         0.0000 
     14 O14         4.5720   -0.7874   -1.0215 O.3       1 UNK         0.0000 
     15 C15         3.3061   -1.0862   -1.3704 C.2       1 UNK         0.0000 
     16 O16         2.7178   -0.6324   -2.3450 O.2       1 UNK         0.0000 
     17 N17         2.7644   -1.9726   -0.4973 N.am      1 UNK         0.0000 
     18 H18         3.2579   -2.1732    0.3830 H         1 UNK         0.0000 
     19 C19         1.3349   -2.2319   -0.5461 C.3       1 UNK         0.0000 
     20 C20         0.6256   -1.0267    0.0973 C.2       1 UNK         0.0000 
     21 N21         0.1709   -0.1011   -0.7751 N.am      1 UNK         0.0000 
     22 H22         0.4424   -0.2044   -1.7484 H         1 UNK         0.0000 
     23 O23         0.5496   -0.9023    1.3215 O.2       1 UNK         0.0000 
     24 H24         1.0426   -2.3057   -1.5982 H         1 UNK         0.0000 
     25 C25         0.9909   -3.5439    0.1693 C.3       1 UNK         0.0000 
     26 H26         1.2813   -3.4637    1.2211 H         1 UNK         0.0000 
     27 H27         1.5789   -4.3425   -0.2935 H         1 UNK         0.0000 
     28 C28        -0.4904   -3.7977    0.0309 C.ar      1 UNK         0.0000 
     29 C29        -1.3759   -3.4051    1.0404 C.ar      1 UNK         0.0000 
     30 C30        -2.7467   -3.3741    0.8054 C.ar      1 UNK         0.0000 
     31 H31        -3.4429   -3.0157    1.5571 H         1 UNK         0.0000 
     32 H32        -0.9822   -3.0612    1.9927 H         1 UNK         0.0000 
     33 C33        -1.0161   -4.2778   -1.1740 C.ar      1 UNK         0.0000 
     34 H34        -0.3414   -4.6217   -1.9542 H         1 UNK         0.0000 
     35 C35        -2.3886   -4.2491   -1.4240 C.ar      1 UNK         0.0000 
     36 H36        -2.7937   -4.5478   -2.3857 H         1 UNK         0.0000 
     37 C37        -3.2297   -3.7272   -0.4498 C.ar      1 UNK         0.0000 
     38 O38        -4.5582   -3.4189   -0.7554 O.3       1 UNK         0.0000 
     39 C39        -4.6970   -2.0534   -0.9386 C.ar      1 UNK         0.0000 
     40 C40        -3.8269   -1.3712   -1.7939 C.ar      1 UNK         0.0000 
     41 C41        -3.8751    0.0114   -1.8557 C.ar      1 UNK         0.0000 
     42 H42        -3.1690    0.5308   -2.4962 H         1 UNK         0.0000 
     43 H43        -3.0861   -1.9174   -2.3664 H         1 UNK         0.0000 
     44 C44        -5.6832   -1.3706   -0.2283 C.ar      1 UNK         0.0000 
     45 H45        -6.3586   -1.9237    0.4156 H         1 UNK         0.0000 
     46 C46        -5.7352    0.0193   -0.3119 C.ar      1 UNK         0.0000 
     47 H47        -6.4688    0.5721    0.2677 H         1 UNK         0.0000 
     48 C48        -4.8050    0.7228   -1.0874 C.ar      1 UNK         0.0000 
     49 C49        -4.7598    2.2096   -1.0247 C.2       1 UNK         0.0000 
     50 O50        -5.7109    2.8666   -0.6372 O.2       1 UNK         0.0000 
     51 C51        -3.4461    2.9102   -1.3960 C.3       1 UNK         0.0000 
     52 H52        -3.2538    2.8032   -2.4681 H         1 UNK         0.0000 
     53 H53        -3.5722    3.9707   -1.1665 H         1 UNK         0.0000 
     54 N54        -2.3159    2.3571   -0.6751 N.am      1 UNK         0.0000 
     55 H55        -2.3023    2.4242    0.3518 H         1 UNK         0.0000 
     56 C56        -1.2679    1.7693   -1.2822 C.2       1 UNK         0.0000 
     57 O57        -1.1538    1.6436   -2.5041 O.2       1 UNK         0.0000 
     58 C58        -0.1788    1.2460   -0.3474 C.3       1 UNK         0.0000 
     59 H59        -0.5561    1.1902    0.6763 H         1 UNK         0.0000 
     60 C60         1.0537    2.1618   -0.3930 C.3       1 UNK         0.0000 
     61 H61         1.4301    2.1756   -1.4234 H         1 UNK         0.0000 
     62 H62         1.8288    1.6922    0.2284 H         1 UNK         0.0000 
     63 C63         0.7659    3.5729    0.1176 C.3       1 UNK         0.0000 
     64 H64         0.0642    4.0813   -0.5606 H         1 UNK         0.0000 
     65 H65         0.2586    3.4973    1.0892 H         1 UNK         0.0000 
     66 C66         2.0196    4.4434    0.2666 C.3       1 UNK         0.0000 
     67 C67         2.6787    4.7259   -1.0854 C.3       1 UNK         0.0000 
     68 H68         3.5676    5.3527   -0.9615 H         1 UNK         0.0000 
     69 H69         2.9870    3.8086   -1.5948 H         1 UNK         0.0000 
     70 H70         1.9792    5.2582   -1.7419 H         1 UNK         0.0000 
     71 H71         2.7370    3.8932    0.8942 H         1 UNK         0.0000 
     72 C72         1.6723    5.7556    0.9713 C.3       1 UNK         0.0000 
     73 H73         1.2318    5.5737    1.9567 H         1 UNK         0.0000 
     74 H74         2.5617    6.3796    1.1044 H         1 UNK         0.0000 
     75 H75         0.9477    6.3258    0.3772 H         1 UNK         0.0000 
     76 C76         3.6371    0.1058    2.1580 C.3       1 UNK         0.0000 
     77 H77         2.5482    0.0207    2.1236 H         1 UNK         0.0000 
     78 H78         4.0521    0.1505    1.1470 H         1 UNK         0.0000 
     79 H79         3.9386    0.9745    2.7474 H         1 UNK         0.0000 
     80 S80         4.2475   -1.3874    2.9713 S.3       1 UNK         0.0000 
     81 C81         6.0045   -1.1522    2.6388 C.3       1 UNK         0.0000 
     82 H82         6.5345   -2.0027    3.0683 H         1 UNK         0.0000 
     83 H83         6.3425   -0.2246    3.1050 H         1 UNK         0.0000 
     84 H84         6.1389   -1.1243    1.5550 H         1 UNK         0.0000 
     85 O85         3.8309   -2.5557    2.0615 O.2       1 UNK         0.0000 
     86 C86        -2.7104   -0.2188    2.0692 C.3       1 UNK         0.0000 
     87 H87        -3.2518   -0.9801    2.6354 H         1 UNK         0.0000 
     88 H88        -1.6595   -0.5033    1.9628 H         1 UNK         0.0000 
     89 H89        -3.1716   -0.0632    1.0873 H         1 UNK         0.0000 
     90 S90        -2.7633    1.3143    3.0216 S.3       1 UNK         0.0000 
     91 C91        -4.5354    1.6299    2.9005 C.3       1 UNK         0.0000 
     92 H92        -4.8072    1.7067    1.8451 H         1 UNK         0.0000 
     93 H93        -4.7322    2.5717    3.4133 H         1 UNK         0.0000 
     94 H94        -5.0792    0.8168    3.3858 H         1 UNK         0.0000 
     95 O95        -2.1009    2.3831    2.1344 O.2       1 UNK         0.0000 
@<TRIPOS>BOND
     1    1    5 1    
     2    1    2 1    
     3    1    3 1    
     4    1    4 1    
     5    5   14 1    
     6    5    6 1    
     7    5   10 1    
     8    6    7 1    
     9    6    9 1    
    10    6    8 1    
    11   10   11 1    
    12   10   12 1    
    13   10   13 1    
    14   14   15 1    
    15   15   17 am   BACKBONE|DICT|INTERRES
    16   15   16 2    
    17   17   18 1    
    18   17   19 1    
    19   19   24 1    
    20   19   20 1    
    21   19   25 1    
    22   20   23 2    
    23   20   21 am   BACKBONE|DICT|INTERRES
    24   21   58 1    
    25   21   22 1    
    26   25   26 1    
    27   25   27 1    
    28   25   28 1    
    29   28   29 ar   
    30   28   33 ar   
    31   29   32 1    
    32   29   30 ar   
    33   30   31 1    
    34   30   37 ar   
    35   33   34 1    
    36   33   35 ar   
    37   35   37 ar   
    38   35   36 1    
    39   37   38 1    
    40   38   39 1    
    41   39   44 ar   
    42   39   40 ar   
    43   40   41 ar   
    44   40   43 1    
    45   41   48 ar   
    46   41   42 1    
    47   44   45 1    
    48   44   46 ar   
    49   46   47 1    
    50   46   48 ar   
    51   48   49 1    
    52   49   50 2    
    53   49   51 1    
    54   51   53 1    
    55   51   54 1    
    56   51   52 1    
    57   54   55 1    
    58   54   56 am   BACKBONE|DICT|INTERRES
    59   56   58 1    
    60   56   57 2    
    61   58   59 1    
    62   58   60 1    
    63   60   63 1    
    64   60   62 1    
    65   60   61 1    
    66   63   66 1    
    67   63   65 1    
    68   63   64 1    
    69   66   71 1    
    70   66   72 1    
    71   66   67 1    
    72   67   68 1    
    73   67   69 1    
    74   67   70 1    
    75   72   74 1    
    76   72   73 1    
    77   72   75 1    
    78   76   79 1    
    79   76   80 1    
    80   76   77 1    
    81   76   78 1    
    82   80   81 1    
    83   80   85 2    
    84   81   82 1    
    85   81   83 1    
    86   81   84 1    
    87   86   87 1    
    88   86   90 1    
    89   86   88 1    
    90   86   89 1    
    91   90   91 1    
    92   90   95 2    
    93   91   94 1    
    94   91   93 1    
    95   91   92 1    
@<TRIPOS>SUBSTRUCTURE
     1 UNK         1 GROUP             0       ****    0 ROOT    
@<TRIPOS>MOLECULE
Cpd1-4500
95   95    1
SMALL
USER_CHARGES


@<TRIPOS>ATOM
      1 C1          4.7717    2.5507   -1.4512 C.3       1 UNK         0.0000 
      2 H2          5.4596    3.2556   -1.9282 H         1 UNK         0.0000 
      3 H3          3.8190    2.5705   -1.9812 H         1 UNK         0.0000 
      4 H4          4.6142    2.8741   -0.4174 H         1 UNK         0.0000 
      5 C5          5.3929    1.1576   -1.4697 C.3       1 UNK         0.0000 
      6 C6          6.7527    1.1783   -0.7808 C.3       1 UNK         0.0000 
      7 H7          7.4375    1.8167   -1.3447 H         1 UNK         0.0000 
      8 H8          6.6659    1.5760    0.2346 H         1 UNK         0.0000 
      9 H9          7.1788    0.1713   -0.7332 H         1 UNK         0.0000 
     10 C10         5.5206    0.5917   -2.8807 C.3       1 UNK         0.0000 
     11 H11         6.2158    1.2123   -3.4533 H         1 UNK         0.0000 
     12 H12         5.9214   -0.4263   -2.8425 H         1 UNK         0.0000 
     13 H13         4.5572    0.5805   -3.3916 H         1 UNK         0.0000 
     14 O14         4.6122    0.2392   -0.6366 O.3       1 UNK         0.0000 
     15 C15         3.3302   -0.0451   -0.9470 C.2       1 UNK         0.0000 
     16 O16         2.6918    0.4837   -1.8511 O.2       1 UNK         0.0000 
     17 N17         2.8367   -1.0035   -0.1328 N.am      1 UNK         0.0000 
     18 H18         3.4023   -1.4021    0.6276 H         1 UNK         0.0000 
     19 C19         1.4762   -1.4739   -0.3143 C.3       1 UNK         0.0000 
     20 C20         0.5196   -0.5347    0.4432 C.2       1 UNK         0.0000 
     21 N21         0.0286    0.4823   -0.2934 N.am      1 UNK         0.0000 
     22 H22         0.3802    0.6212   -1.2357 H         1 UNK         0.0000 
     23 O23         0.2586   -0.6959    1.6368 O.2       1 UNK         0.0000 
     24 H24         1.2469   -1.4211   -1.3837 H         1 UNK         0.0000 
     25 C25         1.3324   -2.9274    0.1578 C.3       1 UNK         0.0000 
     26 H26         1.5213   -2.9790    1.2337 H         1 UNK         0.0000 
     27 H27         2.0977   -3.5203   -0.3534 H         1 UNK         0.0000 
     28 C28        -0.0548   -3.4200   -0.1771 C.ar      1 UNK         0.0000 
     29 C29        -1.0806   -3.3649    0.7728 C.ar      1 UNK         0.0000 
     30 C30        -2.4058   -3.5557    0.3949 C.ar      1 UNK         0.0000 
     31 H31        -3.2177   -3.4572    1.1086 H         1 UNK         0.0000 
     32 H32        -0.8430   -3.1047    1.8000 H         1 UNK         0.0000 
     33 C33        -0.3734   -3.7988   -1.4862 C.ar      1 UNK         0.0000 
     34 H34         0.4178   -3.8848   -2.2271 H         1 UNK         0.0000 
     35 C35        -1.6982   -3.9926   -1.8789 C.ar      1 UNK         0.0000 
     36 H36        -1.9545   -4.2110   -2.9109 H         1 UNK         0.0000 
     37 C37        -2.7043   -3.7949   -0.9420 C.ar      1 UNK         0.0000 
     38 O38        -4.0385   -3.6972   -1.3480 O.3       1 UNK         0.0000 
     39 C39        -4.4267   -2.3690   -1.3915 C.ar      1 UNK         0.0000 
     40 C40        -3.6326   -1.4279   -2.0529 C.ar      1 UNK         0.0000 
     41 C41        -3.9497   -0.0828   -1.9628 C.ar      1 UNK         0.0000 
     42 H42        -3.3013    0.6387   -2.4487 H         1 UNK         0.0000 
     43 H43        -2.7467   -1.7426   -2.5920 H         1 UNK         0.0000 
     44 C44        -5.5948   -1.9821   -0.7354 C.ar      1 UNK         0.0000 
     45 H45        -6.2067   -2.7321   -0.2457 H         1 UNK         0.0000 
     46 C46        -5.9142   -0.6275   -0.6661 C.ar      1 UNK         0.0000 
     47 H47        -6.7968   -0.3048   -0.1213 H         1 UNK         0.0000 
     48 C48        -5.0706    0.3349   -1.2355 C.ar      1 UNK         0.0000 
     49 C49        -5.3199    1.7830   -0.9931 C.2       1 UNK         0.0000 
     50 O50        -6.4116    2.1985   -0.6437 O.2       1 UNK         0.0000 
     51 C51        -4.1338    2.7513   -1.1136 C.3       1 UNK         0.0000 
     52 H52        -3.7896    2.8042   -2.1508 H         1 UNK         0.0000 
     53 H53        -4.4929    3.7375   -0.8116 H         1 UNK         0.0000 
     54 N54        -3.0201    2.3310   -0.2853 N.am      1 UNK         0.0000 
     55 H55        -3.1597    2.2609    0.7309 H         1 UNK         0.0000 
     56 C56        -1.8205    1.9584   -0.7772 C.2       1 UNK         0.0000 
     57 O57        -1.5289    1.9695   -1.9749 O.2       1 UNK         0.0000 
     58 C58        -0.8165    1.5107    0.2847 C.3       1 UNK         0.0000 
     59 H59        -1.3592    1.0556    1.1144 H         1 UNK         0.0000 
     60 C60        -0.0162    2.6971    0.8523 C.3       1 UNK         0.0000 
     61 H61         0.6108    2.2936    1.6552 H         1 UNK         0.0000 
     62 H62        -0.7291    3.3891    1.3201 H         1 UNK         0.0000 
     63 C63         0.8399    3.4378   -0.1743 C.3       1 UNK         0.0000 
     64 H64         1.6376    2.7715   -0.5385 H         1 UNK         0.0000 
     65 H65         0.2260    3.6968   -1.0465 H         1 UNK         0.0000 
     66 C66         1.4721    4.7233    0.3760 C.3       1 UNK         0.0000 
     67 C67         2.3759    4.4510    1.5807 C.3       1 UNK         0.0000 
     68 H68         3.1459    3.7137    1.3209 H         1 UNK         0.0000 
     69 H69         2.8821    5.3672    1.9011 H         1 UNK         0.0000 
     70 H70         1.8161    4.0636    2.4368 H         1 UNK         0.0000 
     71 H71         0.6541    5.3815    0.7038 H         1 UNK         0.0000 
     72 C72         2.2503    5.4453   -0.7250 C.3       1 UNK         0.0000 
     73 H73         1.6137    5.6511   -1.5918 H         1 UNK         0.0000 
     74 H74         2.6531    6.3969   -0.3638 H         1 UNK         0.0000 
     75 H75         3.0929    4.8313   -1.0644 H         1 UNK         0.0000 
     76 C76        -3.2537   -0.6839    2.0359 C.3       1 UNK         0.0000 
     77 H77        -2.1712   -0.8262    2.1028 H         1 UNK         0.0000 
     78 H78        -3.5446   -0.4224    1.0119 H         1 UNK         0.0000 
     79 H79        -3.7750   -1.5844    2.3676 H         1 UNK         0.0000 
     80 S80        -3.7043    0.6600    3.1563 S.3       1 UNK         0.0000 
     81 C81        -5.4744    0.7016    2.8104 C.3       1 UNK         0.0000 
     82 H82        -5.9203   -0.2503    3.1056 H         1 UNK         0.0000 
     83 H83        -5.6237    0.8902    1.7448 H         1 UNK         0.0000 
     84 H84        -5.8979    1.5135    3.4022 H         1 UNK         0.0000 
     85 O85        -3.1393    1.9423    2.5213 O.2       1 UNK         0.0000 
     86 C86         6.3346   -0.9197    2.1994 C.3       1 UNK         0.0000 
     87 H87         5.8191   -0.2444    1.5124 H         1 UNK         0.0000 
     88 H88         7.4135   -0.9116    2.0308 H         1 UNK         0.0000 
     89 H89         6.1157   -0.6602    3.2356 H         1 UNK         0.0000 
     90 S90         5.6937   -2.5827    1.9212 S.3       1 UNK         0.0000 
     91 C91         6.1426   -2.7378    0.1788 C.3       1 UNK         0.0000 
     92 H92         7.2310   -2.7554    0.0925 H         1 UNK         0.0000 
     93 H93         5.7161   -1.8944   -0.3704 H         1 UNK         0.0000 
     94 H94         5.7257   -3.6816   -0.1745 H         1 UNK         0.0000 
     95 O95         4.1642   -2.4185    1.9315 O.2       1 UNK         0.0000 
@<TRIPOS>BOND
     1    1    4 1    
     2    1    2 1    
     3    1    3 1    
     4    1    5 1    
     5    5    6 1    
     6    5   14 1    
     7    5   10 1    
     8    6    9 1    
     9    6    8 1    
    10    6    7 1    
    11   10   12 1    
    12   10   11 1    
    13   10   13 1    
    14   14   15 1    
    15   15   17 am   BACKBONE|DICT|INTERRES
    16   15   16 2    
    17   17   18 1    
    18   17   19 1    
    19   19   24 1    
    20   19   25 1    
    21   19   20 1    
    22   20   23 2    
    23   20   21 am   BACKBONE|DICT|INTERRES
    24   21   58 1    
    25   21   22 1    
    26   25   26 1    
    27   25   27 1    
    28   25   28 1    
    29   28   29 ar   
    30   28   33 ar   
    31   29   32 1    
    32   29   30 ar   
    33   30   31 1    
    34   30   37 ar   
    35   33   34 1    
    36   33   35 ar   
    37   35   37 ar   
    38   35   36 1    
    39   37   38 1    
    40   38   39 1    
    41   39   44 ar   
    42   39   40 ar   
    43   40   41 ar   
    44   40   43 1    
    45   41   48 ar   
    46   41   42 1    
    47   44   46 ar   
    48   44   45 1    
    49   46   47 1    
    50   46   48 ar   
    51   48   49 1    
    52   49   50 2    
    53   49   51 1    
    54   51   53 1    
    55   51   54 1    
    56   51   52 1    
    57   54   55 1    
    58   54   56 am   BACKBONE|DICT|INTERRES
    59   56   58 1    
    60   56   57 2    
    61   58   60 1    
    62   58   59 1    
    63   60   62 1    
    64   60   61 1    
    65   60   63 1    
    66   63   66 1    
    67   63   64 1    
    68   63   65 1    
    69   66   71 1    
    70   66   67 1    
    71   66   72 1    
    72   67   69 1    
    73   67   70 1    
    74   67   68 1    
    75   72   74 1    
    76   72   73 1    
    77   72   75 1    
    78   76   77 1    
    79   76   79 1    
    80   76   80 1    
    81   76   78 1    
    82   80   81 1    
    83   80   85 2    
    84   81   82 1    
    85   81   84 1    
    86   81   83 1    
    87   86   89 1    
    88   86   87 1    
    89   86   88 1    
    90   86   90 1    
    91   90   95 2    
    92   90   91 1    
    93   91   92 1    
    94   91   93 1    
    95   91   94 1    
@<TRIPOS>SUBSTRUCTURE
     1 UNK         1 GROUP             0       ****    0 ROOT    
@<TRIPOS>MOLECULE
Cpd1-5000
95   95    1
SMALL
USER_CHARGES


@<TRIPOS>ATOM
      1 C1          4.6874    2.8197   -0.4747 C.3       1 UNK         0.0000 
      2 H2          5.2783    3.6977   -0.7525 H         1 UNK         0.0000 
      3 H3          3.6837    2.9268   -0.8895 H         1 UNK         0.0000 
      4 H4          4.6224    2.7788    0.6172 H         1 UNK         0.0000 
      5 C5          5.3660    1.5618   -1.0065 C.3       1 UNK         0.0000 
      6 C6          6.7425    1.3864   -0.3760 C.3       1 UNK         0.0000 
      7 H7          7.3763    2.2390   -0.6334 H         1 UNK         0.0000 
      8 H8          6.6597    1.3241    0.7125 H         1 UNK         0.0000 
      9 H9          7.2209    0.4739   -0.7456 H         1 UNK         0.0000 
     10 C10         5.4752    1.5540   -2.5287 C.3       1 UNK         0.0000 
     11 H11         5.8694    0.5918   -2.8708 H         1 UNK         0.0000 
     12 H12         4.5085    1.7327   -2.9993 H         1 UNK         0.0000 
     13 H13         6.1719    2.3383   -2.8388 H         1 UNK         0.0000 
     14 O14         4.6414    0.3803   -0.5404 O.3       1 UNK         0.0000 
     15 C15         3.3545    0.1736   -0.8860 C.2       1 UNK         0.0000 
     16 O16         2.7045    0.8705   -1.6568 O.2       1 UNK         0.0000 
     17 N17         2.8777   -0.9336   -0.2741 N.am      1 UNK         0.0000 
     18 H18         3.4638   -1.4038    0.4264 H         1 UNK         0.0000 
     19 C19         1.5045   -1.3455   -0.4803 C.3       1 UNK         0.0000 
     20 C20         0.5746   -0.4598    0.3692 C.2       1 UNK         0.0000 
     21 N21        -0.0461    0.5350   -0.2934 N.am      1 UNK         0.0000 
     22 H22         0.2184    0.7365   -1.2518 H         1 UNK         0.0000 
     23 O23         0.4335   -0.6549    1.5787 O.2       1 UNK         0.0000 
     24 H24         1.2608   -1.2072   -1.5395 H         1 UNK         0.0000 
     25 C25         1.3417   -2.8271   -0.1094 C.3       1 UNK         0.0000 
     26 H26         1.5790   -2.9535    0.9516 H         1 UNK         0.0000 
     27 H27         2.0671   -3.3995   -0.6961 H         1 UNK         0.0000 
     28 C28        -0.0695   -3.2763   -0.3987 C.ar      1 UNK         0.0000 
     29 C29        -1.0477   -3.2307    0.6014 C.ar      1 UNK         0.0000 
     30 C30        -2.3914   -3.3994    0.2844 C.ar      1 UNK         0.0000 
     31 H31        -3.1703   -3.3148    1.0366 H         1 UNK         0.0000 
     32 H32        -0.7523   -3.0038    1.6216 H         1 UNK         0.0000 
     33 C33        -0.4542   -3.6174   -1.6996 C.ar      1 UNK         0.0000 
     34 H34         0.2995   -3.6932   -2.4794 H         1 UNK         0.0000 
     35 C35        -1.7988   -3.7926   -2.0301 C.ar      1 UNK         0.0000 
     36 H36        -2.1080   -3.9856   -3.0525 H         1 UNK         0.0000 
     37 C37        -2.7567   -3.6106   -1.0413 C.ar      1 UNK         0.0000 
     38 O38        -4.1080   -3.5064   -1.3789 O.3       1 UNK         0.0000 
     39 C39        -4.5033   -2.1795   -1.3801 C.ar      1 UNK         0.0000 
     40 C40        -3.7148   -1.2141   -2.0125 C.ar      1 UNK         0.0000 
     41 C41        -4.0353    0.1248   -1.8736 C.ar      1 UNK         0.0000 
     42 H42        -3.3920    0.8662   -2.3363 H         1 UNK         0.0000 
     43 H43        -2.8291   -1.5059   -2.5644 H         1 UNK         0.0000 
     44 C44        -5.6751   -1.8209   -0.7153 C.ar      1 UNK         0.0000 
     45 H45        -6.2850   -2.5897   -0.2522 H         1 UNK         0.0000 
     46 C46        -6.0001   -0.4699   -0.6015 C.ar      1 UNK         0.0000 
     47 H47        -6.8862   -0.1658   -0.0516 H         1 UNK         0.0000 
     48 C48        -5.1565    0.5127   -1.1316 C.ar      1 UNK         0.0000 
     49 C49        -5.4026    1.9509   -0.8394 C.2       1 UNK         0.0000 
     50 O50        -6.5056    2.3738   -0.5409 O.2       1 UNK         0.0000 
     51 C51        -4.1968    2.9020   -0.8658 C.3       1 UNK         0.0000 
     52 H52        -3.8537    3.0419   -1.8958 H         1 UNK         0.0000 
     53 H53        -4.5400    3.8643   -0.4791 H         1 UNK         0.0000 
     54 N54        -3.0876    2.3939   -0.0813 N.am      1 UNK         0.0000 
     55 H55        -3.2828    2.0958    0.8836 H         1 UNK         0.0000 
     56 C56        -1.8959    2.0537   -0.6104 C.2       1 UNK         0.0000 
     57 O57        -1.5936    2.1953   -1.7972 O.2       1 UNK         0.0000 
     58 C58        -0.8918    1.4923    0.3957 C.3       1 UNK         0.0000 
     59 H59        -1.4258    0.9495    1.1792 H         1 UNK         0.0000 
     60 C60        -0.0913    2.6259    1.0663 C.3       1 UNK         0.0000 
     61 H61         0.6551    2.1484    1.7138 H         1 UNK         0.0000 
     62 H62        -0.7788    3.1768    1.7182 H         1 UNK         0.0000 
     63 C63         0.5916    3.5755    0.0826 C.3       1 UNK         0.0000 
     64 H64         1.1340    2.9878   -0.6723 H         1 UNK         0.0000 
     65 H65        -0.1700    4.1564   -0.4575 H         1 UNK         0.0000 
     66 C66         1.5735    4.5515    0.7436 C.3       1 UNK         0.0000 
     67 C67         2.1519    5.5033   -0.3054 C.3       1 UNK         0.0000 
     68 H68         1.3639    6.1593   -0.6947 H         1 UNK         0.0000 
     69 H69         2.9352    6.1364    0.1239 H         1 UNK         0.0000 
     70 H70         2.5810    4.9581   -1.1522 H         1 UNK         0.0000 
     71 H71         2.3973    3.9608    1.1703 H         1 UNK         0.0000 
     72 C72         0.9220    5.3510    1.8749 C.3       1 UNK         0.0000 
     73 H73         0.6182    4.7130    2.7096 H         1 UNK         0.0000 
     74 H74         1.6157    6.1024    2.2654 H         1 UNK         0.0000 
     75 H75         0.0309    5.8749    1.5063 H         1 UNK         0.0000 
     76 C76        -5.1943   -0.9741    2.8309 C.3       1 UNK         0.0000 
     77 H77        -6.0193   -0.4724    2.3245 H         1 UNK         0.0000 
     78 H78        -5.1784   -0.7131    3.8910 H         1 UNK         0.0000 
     79 H79        -5.2721   -2.0541    2.6885 H         1 UNK         0.0000 
     80 S80        -3.6747   -0.3820    2.0642 S.3       1 UNK         0.0000 
     81 C81        -2.4948   -1.1057    3.2207 C.3       1 UNK         0.0000 
     82 H82        -2.6795   -0.6710    4.2056 H         1 UNK         0.0000 
     83 H83        -1.4927   -0.8592    2.8591 H         1 UNK         0.0000 
     84 H84        -2.6297   -2.1897    3.2460 H         1 UNK         0.0000 
     85 O85        -3.6434    1.1285    2.3703 O.2       1 UNK         0.0000 
     86 C86         6.2448   -2.4945   -0.6209 C.3       1 UNK         0.0000 
     87 H87         5.7888   -3.4793   -0.7451 H         1 UNK         0.0000 
     88 H88         7.2938   -2.5046   -0.9242 H         1 UNK         0.0000 
     89 H89         5.6969   -1.7382   -1.1848 H         1 UNK         0.0000 
     90 S90         6.1371   -2.0266    1.1186 S.3       1 UNK         0.0000 
     91 C91         6.9974   -3.4533    1.8100 C.3       1 UNK         0.0000 
     92 H92         6.9564   -3.3592    2.8954 H         1 UNK         0.0000 
     93 H93         8.0355   -3.4412    1.4728 H         1 UNK         0.0000 
     94 H94         6.4869   -4.3619    1.4843 H         1 UNK         0.0000 
     95 O95         4.6627   -2.2371    1.5051 O.2       1 UNK         0.0000 
@<TRIPOS>BOND
     1    1    4 1    
     2    1    2 1    
     3    1    3 1    
     4    1    5 1    
     5    5   14 1    
     6    5    6 1    
     7    5   10 1    
     8    6    8 1    
     9    6    7 1    
    10    6    9 1    
    11   10   11 1    
    12   10   12 1    
    13   10   13 1    
    14   14   15 1    
    15   15   17 am   BACKBONE|DICT|INTERRES
    16   15   16 2    
    17   17   18 1    
    18   17   19 1    
    19   19   24 1    
    20   19   25 1    
    21   19   20 1    
    22   20   23 2    
    23   20   21 am   BACKBONE|DICT|INTERRES
    24   21   58 1    
    25   21   22 1    
    26   25   26 1    
    27   25   27 1    
    28   25   28 1    
    29   28   29 ar   
    30   28   33 ar   
    31   29   32 1    
    32   29   30 ar   
    33   30   31 1    
    34   30   37 ar   
    35   33   34 1    
    36   33   35 ar   
    37   35   37 ar   
    38   35   36 1    
    39   37   38 1    
    40   38   39 1    
    41   39   44 ar   
    42   39   40 ar   
    43   40   41 ar   
    44   40   43 1    
    45   41   48 ar   
    46   41   42 1    
    47   44   46 ar   
    48   44   45 1    
    49   46   47 1    
    50   46   48 ar   
    51   48   49 1    
    52   49   50 2    
    53   49   51 1    
    54   51   53 1    
    55   51   54 1    
    56   51   52 1    
    57   54   55 1    
    58   54   56 am   BACKBONE|DICT|INTERRES
    59   56   58 1    
    60   56   57 2    
    61   58   60 1    
    62   58   59 1    
    63   60   61 1    
    64   60   62 1    
    65   60   63 1    
    66   63   66 1    
    67   63   64 1    
    68   63   65 1    
    69   66   71 1    
    70   66   72 1    
    71   66   67 1    
    72   67   69 1    
    73   67   68 1    
    74   67   70 1    
    75   72   74 1    
    76   72   73 1    
    77   72   75 1    
    78   76   78 1    
    79   76   77 1    
    80   76   79 1    
    81   76   80 1    
    82   80   85 2    
    83   80   81 1    
    84   81   84 1    
    85   81   82 1    
    86   81   83 1    
    87   86   90 1    
    88   86   87 1    
    89   86   88 1    
    90   86   89 1    
    91   90   95 2    
    92   90   91 1    
    93   91   92 1    
    94   91   93 1    
    95   91   94 1    
@<TRIPOS>SUBSTRUCTURE
     1 UNK         1 GROUP             0       ****    0 ROOT    
