@<TRIPOS>MOLECULE
Cpd1-1
75   77    1
SMALL
USER_CHARGES


@<TRIPOS>ATOM
      1 C1         -1.6379    1.2135   -5.1785 C.3       1 UNK         0.0000 
      2 N2         -3.1725    1.9071   -0.9659 N.am      1 UNK         0.0000 
      3 O3         -6.0415    0.8710   -2.2811 O.2       1 UNK         0.0000 
      4 C4          0.4749    0.7657   -3.8791 C.3       1 UNK         0.0000 
      5 N5         -0.1836    0.4483    0.5036 N.am      1 UNK         0.0000 
      6 O6          1.7559    0.0716   -0.6175 O.2       1 UNK         0.0000 
      7 N7          0.9113   -0.2936    2.8908 N.am      1 UNK         0.0000 
      8 O8         -2.5464    1.3309    1.1360 O.2       1 UNK         0.0000 
      9 C9          0.4572   -2.9700   -0.1329 C.ar      1 UNK         0.0000 
     10 O10         1.6900    1.8079    3.3024 O.2       1 UNK         0.0000 
     11 C11        -0.0140   -3.3181    2.1986 C.ar      1 UNK         0.0000 
     12 O12        -2.9838   -4.1789    0.2101 O.3       1 UNK         0.0000 
     13 C13        -4.7370   -1.6583   -1.7920 C.ar      1 UNK         0.0000 
     14 C14        -4.4353   -0.8216    0.4555 C.ar      1 UNK         0.0000 
     15 C15        -0.7879   -3.4889   -0.4680 C.ar      1 UNK         0.0000 
     16 C16        -1.2706   -3.8354    1.8771 C.ar      1 UNK         0.0000 
     17 C17        -4.1556   -2.8700   -1.4270 C.ar      1 UNK         0.0000 
     18 C18        -3.8748   -2.0341    0.8335 C.ar      1 UNK         0.0000 
     19 C19         2.0645   -2.0046    1.5401 C.3       1 UNK         0.0000 
     20 C20        -4.6047    1.9684   -0.7128 C.3       1 UNK         0.0000 
     21 C21        -1.7675   -0.0133   -2.9946 C.3       1 UNK         0.0000 
     22 C22        -1.2261   -0.3064   -1.5903 C.3       1 UNK         0.0000 
     23 C23         0.8365   -2.8173    1.2056 C.ar      1 UNK         0.0000 
     24 C24        -4.8358   -0.6096   -0.8688 C.ar      1 UNK         0.0000 
     25 C25        -1.6673   -3.8571    0.5454 C.ar      1 UNK         0.0000 
     26 C26        -3.6888   -3.0310   -0.1233 C.ar      1 UNK         0.0000 
     27 C27        -5.2755    0.7368   -1.3460 C.2       1 UNK         0.0000 
     28 C28         1.0967    0.0477    0.4218 C.2       1 UNK         0.0000 
     29 C29        -2.2886    1.4170   -0.0599 C.2       1 UNK         0.0000 
     30 C30        -1.0217    1.0703   -3.7862 C.3       1 UNK         0.0000 
     31 C31         0.9752    0.8678    3.6030 C.2       1 UNK         0.0000 
     32 C32         1.7259   -0.5035    1.7145 C.3       1 UNK         0.0000 
     33 C33        -0.9700    0.8856   -0.6346 C.3       1 UNK         0.0000 
     34 H34         2.6588    0.0511    1.8504 H         1 UNK         0.0000 
     35 H35        -0.4343    1.6874   -1.1596 H         1 UNK         0.0000 
     36 H36        -2.7085    1.4373   -5.1216 H         1 UNK         0.0000 
     37 H37        -1.1517    2.0138   -5.7441 H         1 UNK         0.0000 
     38 H38        -1.5187    0.2811   -5.7428 H         1 UNK         0.0000 
     39 H39         0.9535    0.7239   -2.8954 H         1 UNK         0.0000 
     40 H40         0.6271   -0.2049   -4.3684 H         1 UNK         0.0000 
     41 H41         0.9863    1.5260   -4.4774 H         1 UNK         0.0000 
     42 H42         1.1264   -2.6245   -0.9167 H         1 UNK         0.0000 
     43 H43         0.2920   -3.2828    3.2422 H         1 UNK         0.0000 
     44 H44        -5.0656   -1.4947   -2.8142 H         1 UNK         0.0000 
     45 H45        -4.5255   -0.0337    1.1941 H         1 UNK         0.0000 
     46 H46        -1.1099   -3.5490   -1.5039 H         1 UNK         0.0000 
     47 H47        -1.9546   -4.1747    2.6485 H         1 UNK         0.0000 
     48 H48        -4.0148   -3.6695   -2.1468 H         1 UNK         0.0000 
     49 H49        -3.5315   -2.1904    1.8506 H         1 UNK         0.0000 
     50 H50         2.5346   -2.3496    2.4658 H         1 UNK         0.0000 
     51 H51         2.7981   -2.0819    0.7341 H         1 UNK         0.0000 
     52 H52        -5.0349    2.8609   -1.1685 H         1 UNK         0.0000 
     53 H53        -4.7560    2.0060    0.3678 H         1 UNK         0.0000 
     54 H54        -1.7005   -0.9529   -3.5618 H         1 UNK         0.0000 
     55 H55        -2.8400    0.2186   -2.9661 H         1 UNK         0.0000 
     56 H56        -1.8927   -1.0100   -1.0757 H         1 UNK         0.0000 
     57 H57        -0.2595   -0.8061   -1.6925 H         1 UNK         0.0000 
     58 H58        -1.1360    2.0394   -3.2733 H         1 UNK         0.0000 
     59 H59        -2.8748    1.9683   -1.9304 H         1 UNK         0.0000 
     60 H60        -0.6681    0.4180    1.3936 H         1 UNK         0.0000 
     61 H61         0.2715   -1.0103    3.2068 H         1 UNK         0.0000 
     62 O62         0.1441    0.8076    4.6554 O.3       1 UNK         0.0000 
     63 C63        -0.0372    1.9643    5.5329 C.3       1 UNK         0.0000 
     64 C64         1.2730    2.2955    6.2410 C.3       1 UNK         0.0000 
     65 H65         1.0853    3.0625    6.9982 H         1 UNK         0.0000 
     66 H66         1.6635    1.4057    6.7441 H         1 UNK         0.0000 
     67 H67         2.0195    2.6685    5.5391 H         1 UNK         0.0000 
     68 C68        -0.5835    3.1443    4.7346 C.3       1 UNK         0.0000 
     69 H69         0.1602    3.5304    4.0370 H         1 UNK         0.0000 
     70 H70        -1.4752    2.8404    4.1777 H         1 UNK         0.0000 
     71 H71        -0.8657    3.9427    5.4272 H         1 UNK         0.0000 
     72 C72        -1.0755    1.4664    6.5316 C.3       1 UNK         0.0000 
     73 H73        -2.0008    1.1943    6.0164 H         1 UNK         0.0000 
     74 H74        -0.6999    0.5908    7.0685 H         1 UNK         0.0000 
     75 H75        -1.2967    2.2536    7.2570 H         1 UNK         0.0000 
@<TRIPOS>BOND
     1    1   38 1    
     2    1   37 1    
     3    1   30 1    
     4    1   36 1    
     5    2   29 am   BACKBONE|DICT|INTERRES
     6    2   59 1    
     7    2   20 1    
     8    3   27 2    
     9    4   41 1    
    10    4   30 1    
    11    4   39 1    
    12    4   40 1    
    13    5   33 1    
    14    5   28 am   BACKBONE|DICT|INTERRES
    15    5   60 1    
    16    6   28 2    
    17    7   31 am   BACKBONE|DICT|INTERRES
    18    7   32 1    
    19    7   61 1    
    20    8   29 2    
    21    9   42 1    
    22    9   15 ar   
    23    9   23 ar   
    24   10   31 2    
    25   11   23 ar   
    26   11   16 ar   
    27   11   43 1    
    28   12   26 1    
    29   12   25 1    
    30   13   44 1    
    31   13   17 ar   
    32   13   24 ar   
    33   14   24 ar   
    34   14   18 ar   
    35   14   45 1    
    36   15   46 1    
    37   15   25 ar   
    38   16   25 ar   
    39   16   47 1    
    40   17   48 1    
    41   17   26 ar   
    42   18   26 ar   
    43   18   49 1    
    44   19   32 1    
    45   19   51 1    
    46   19   23 1    
    47   19   50 1    
    48   20   52 1    
    49   20   27 1    
    50   20   53 1    
    51   21   30 1    
    52   21   22 1    
    53   21   54 1    
    54   21   55 1    
    55   22   33 1    
    56   22   57 1    
    57   22   56 1    
    58   24   27 1    
    59   28   32 1    
    60   29   33 1    
    61   30   58 1    
    62   31   62 1    
    63   32   34 1    
    64   33   35 1    
    65   62   63 1    
    66   63   68 1    
    67   63   64 1    
    68   63   72 1    
    69   64   67 1    
    70   64   65 1    
    71   64   66 1    
    72   68   69 1    
    73   68   70 1    
    74   68   71 1    
    75   72   73 1    
    76   72   74 1    
    77   72   75 1    
@<TRIPOS>SUBSTRUCTURE
     1 UNK         1 GROUP             0       ****    0 ROOT    
@<TRIPOS>MOLECULE
Cpd1-2
75   77    1
SMALL
USER_CHARGES


@<TRIPOS>ATOM
      1 C1         -1.8050   -2.1253   -4.0325 C.3       1 UNK         0.0000 
      2 N2         -3.1203    1.7924   -1.1289 N.am      1 UNK         0.0000 
      3 O3         -6.1932    0.7697   -2.1724 O.2       1 UNK         0.0000 
      4 C4         -0.1395   -0.3665   -4.6892 C.3       1 UNK         0.0000 
      5 N5         -0.1731    0.5439    0.4222 N.am      1 UNK         0.0000 
      6 O6          1.8917    0.1542   -0.4729 O.2       1 UNK         0.0000 
      7 N7          0.5697   -0.4591    2.8504 N.am      1 UNK         0.0000 
      8 O8         -2.4691    1.7157    1.0405 O.2       1 UNK         0.0000 
      9 C9          0.3762   -2.9362   -0.1262 C.ar      1 UNK         0.0000 
     10 O10         1.3033    1.5643    3.6033 O.2       1 UNK         0.0000 
     11 C11         0.0081   -3.5375    2.1736 C.ar      1 UNK         0.0000 
     12 O12        -3.0157   -4.2470    0.2169 O.3       1 UNK         0.0000 
     13 C13        -5.0056   -1.8035   -1.6456 C.ar      1 UNK         0.0000 
     14 C14        -4.1688   -0.7721    0.3736 C.ar      1 UNK         0.0000 
     15 C15        -0.8625   -3.4611   -0.4671 C.ar      1 UNK         0.0000 
     16 C16        -1.2417   -4.0713    1.8450 C.ar      1 UNK         0.0000 
     17 C17        -4.4348   -3.0181   -1.2703 C.ar      1 UNK         0.0000 
     18 C18        -3.6073   -1.9774    0.7608 C.ar      1 UNK         0.0000 
     19 C19         1.9764   -2.0405    1.5832 C.3       1 UNK         0.0000 
     20 C20        -4.5457    1.9099   -0.8717 C.3       1 UNK         0.0000 
     21 C21        -1.0519   -0.4413   -2.3234 C.3       1 UNK         0.0000 
     22 C22        -0.5354    0.9701   -2.0321 C.3       1 UNK         0.0000 
     23 C23         0.7963   -2.9005    1.2084 C.ar      1 UNK         0.0000 
     24 C24        -4.8395   -0.6639   -0.8505 C.ar      1 UNK         0.0000 
     25 C25        -1.6885   -3.9617    0.5355 C.ar      1 UNK         0.0000 
     26 C26        -3.6985   -3.0828   -0.0891 C.ar      1 UNK         0.0000 
     27 C27        -5.2997    0.6597   -1.3540 C.2       1 UNK         0.0000 
     28 C28         1.0939    0.0820    0.4590 C.2       1 UNK         0.0000 
     29 C29        -2.1918    1.6599   -0.1558 C.2       1 UNK         0.0000 
     30 C30        -1.3503   -0.6834   -3.8081 C.3       1 UNK         0.0000 
     31 C31         0.5459    0.6138    3.6933 C.2       1 UNK         0.0000 
     32 C32         1.5431   -0.5691    1.7872 C.3       1 UNK         0.0000 
     33 C33        -0.7269    1.4416   -0.5894 C.3       1 UNK         0.0000 
     34 H34         2.4221    0.0098    2.0875 H         1 UNK         0.0000 
     35 H35        -0.2452    2.4261   -0.4863 H         1 UNK         0.0000 
     36 H36        -2.6492   -2.3824   -3.3838 H         1 UNK         0.0000 
     37 H37        -2.1090   -2.2880   -5.0712 H         1 UNK         0.0000 
     38 H38        -0.9826   -2.8187   -3.8151 H         1 UNK         0.0000 
     39 H39         0.1479    0.6873   -4.6350 H         1 UNK         0.0000 
     40 H40         0.7230   -0.9673   -4.3747 H         1 UNK         0.0000 
     41 H41        -0.3506   -0.6023   -5.7369 H         1 UNK         0.0000 
     42 H42         1.0093   -2.4932   -0.8910 H         1 UNK         0.0000 
     43 H43         0.3471   -3.5755    3.2065 H         1 UNK         0.0000 
     44 H44        -5.5384   -1.7173   -2.5879 H         1 UNK         0.0000 
     45 H45        -4.0551    0.0893    1.0225 H         1 UNK         0.0000 
     46 H46        -1.2315   -3.4194   -1.4881 H         1 UNK         0.0000 
     47 H47        -1.8907   -4.4983    2.6029 H         1 UNK         0.0000 
     48 H48        -4.5027   -3.8956   -1.9046 H         1 UNK         0.0000 
     49 H49        -3.0572   -2.0527    1.6927 H         1 UNK         0.0000 
     50 H50         2.4405   -2.3842    2.5120 H         1 UNK         0.0000 
     51 H51         2.7322   -2.0526    0.7939 H         1 UNK         0.0000 
     52 H52        -4.9615    2.7681   -1.4029 H         1 UNK         0.0000 
     53 H53        -4.6804    2.0582    0.2029 H         1 UNK         0.0000 
     54 H54        -0.2909   -1.1565   -1.9925 H         1 UNK         0.0000 
     55 H55        -1.9552   -0.6628   -1.7328 H         1 UNK         0.0000 
     56 H56         0.5311    1.0242   -2.2565 H         1 UNK         0.0000 
     57 H57        -1.0095    1.7092   -2.6933 H         1 UNK         0.0000 
     58 H58        -2.1750   -0.0133   -4.1001 H         1 UNK         0.0000 
     59 H59        -2.8305    1.7008   -2.0921 H         1 UNK         0.0000 
     60 H60        -0.7014    0.5177    1.2874 H         1 UNK         0.0000 
     61 H61        -0.1028   -1.1999    3.0033 H         1 UNK         0.0000 
     62 O62        -0.4263    0.4585    4.6053 O.3       1 UNK         0.0000 
     63 C63        -0.7274    1.5199    5.5671 C.3       1 UNK         0.0000 
     64 C64        -1.1417    2.7906    4.8311 C.3       1 UNK         0.0000 
     65 H65        -1.5237    3.5134    5.5580 H         1 UNK         0.0000 
     66 H66        -0.2994    3.2369    4.3014 H         1 UNK         0.0000 
     67 H67        -1.9378    2.5676    4.1145 H         1 UNK         0.0000 
     68 C68        -1.9054    0.9420    6.3428 C.3       1 UNK         0.0000 
     69 H69        -2.7472    0.7501    5.6718 H         1 UNK         0.0000 
     70 H70        -1.6202    0.0047    6.8286 H         1 UNK         0.0000 
     71 H71        -2.2244    1.6514    7.1110 H         1 UNK         0.0000 
     72 C72         0.4659    1.7436    6.4908 C.3       1 UNK         0.0000 
     73 H73         0.7716    0.7968    6.9466 H         1 UNK         0.0000 
     74 H74         1.3104    2.1722    5.9504 H         1 UNK         0.0000 
     75 H75         0.1732    2.4302    7.2907 H         1 UNK         0.0000 
@<TRIPOS>BOND
     1    1   38 1    
     2    1   36 1    
     3    1   30 1    
     4    1   37 1    
     5    2   29 am   BACKBONE|DICT|INTERRES
     6    2   20 1    
     7    2   59 1    
     8    3   27 2    
     9    4   40 1    
    10    4   30 1    
    11    4   39 1    
    12    4   41 1    
    13    5   60 1    
    14    5   28 am   BACKBONE|DICT|INTERRES
    15    5   33 1    
    16    6   28 2    
    17    7   61 1    
    18    7   31 am   BACKBONE|DICT|INTERRES
    19    7   32 1    
    20    8   29 2    
    21    9   23 ar   
    22    9   15 ar   
    23    9   42 1    
    24   10   31 2    
    25   11   43 1    
    26   11   16 ar   
    27   11   23 ar   
    28   12   25 1    
    29   12   26 1    
    30   13   17 ar   
    31   13   24 ar   
    32   13   44 1    
    33   14   18 ar   
    34   14   24 ar   
    35   14   45 1    
    36   15   25 ar   
    37   15   46 1    
    38   16   47 1    
    39   16   25 ar   
    40   17   26 ar   
    41   17   48 1    
    42   18   49 1    
    43   18   26 ar   
    44   19   50 1    
    45   19   23 1    
    46   19   32 1    
    47   19   51 1    
    48   20   53 1    
    49   20   27 1    
    50   20   52 1    
    51   21   54 1    
    52   21   55 1    
    53   21   22 1    
    54   21   30 1    
    55   22   33 1    
    56   22   56 1    
    57   22   57 1    
    58   24   27 1    
    59   28   32 1    
    60   29   33 1    
    61   30   58 1    
    62   31   62 1    
    63   32   34 1    
    64   33   35 1    
    65   62   63 1    
    66   63   68 1    
    67   63   64 1    
    68   63   72 1    
    69   64   65 1    
    70   64   67 1    
    71   64   66 1    
    72   68   71 1    
    73   68   69 1    
    74   68   70 1    
    75   72   75 1    
    76   72   73 1    
    77   72   74 1    
@<TRIPOS>SUBSTRUCTURE
     1 UNK         1 GROUP             0       ****    0 ROOT    
@<TRIPOS>MOLECULE
Cpd1-3
75   77    1
SMALL
USER_CHARGES


@<TRIPOS>ATOM
      1 C1         -2.5586    5.0543    2.7119 C.3       1 UNK         0.0000 
      2 N2         -3.2404    1.7492   -0.3356 N.am      1 UNK         0.0000 
      3 O3         -6.5809    1.0138   -0.6559 O.2       1 UNK         0.0000 
      4 C4         -0.6244    3.5441    3.2902 C.3       1 UNK         0.0000 
      5 N5          0.1086    0.5386   -0.0475 N.am      1 UNK         0.0000 
      6 O6          1.0792    0.5492    1.9995 O.2       1 UNK         0.0000 
      7 N7          3.3825   -0.1174    0.4211 N.am      1 UNK         0.0000 
      8 O8         -1.7013    1.2388   -1.9295 O.2       1 UNK         0.0000 
      9 C9          0.5954   -3.7632    0.0183 C.ar      1 UNK         0.0000 
     10 O10         4.3545   -1.2941   -1.2721 O.2       1 UNK         0.0000 
     11 C11        -0.2491   -2.5310    1.9068 C.ar      1 UNK         0.0000 
     12 O12        -3.0380   -4.2386    0.2573 O.3       1 UNK         0.0000 
     13 C13        -3.7712   -1.0872   -1.4438 C.ar      1 UNK         0.0000 
     14 C14        -5.5210   -1.5550    0.1598 C.ar      1 UNK         0.0000 
     15 C15        -0.6745   -4.2932   -0.2177 C.ar      1 UNK         0.0000 
     16 C16        -1.5191   -3.0474    1.6810 C.ar      1 UNK         0.0000 
     17 C17        -3.1882   -2.3119   -1.1689 C.ar      1 UNK         0.0000 
     18 C18        -4.9281   -2.7796    0.4605 C.ar      1 UNK         0.0000 
     19 C19         2.1251   -2.1164    1.1752 C.3       1 UNK         0.0000 
     20 C20        -4.3970    1.8044   -1.2134 C.3       1 UNK         0.0000 
     21 C21        -1.1931    4.0470    0.8657 C.3       1 UNK         0.0000 
     22 C22        -0.2671    2.9458    0.3434 C.3       1 UNK         0.0000 
     23 C23         0.8143   -2.8487    1.0528 C.ar      1 UNK         0.0000 
     24 C24        -4.9173   -0.6808   -0.7499 C.ar      1 UNK         0.0000 
     25 C25        -1.7279   -3.8888    0.5909 C.ar      1 UNK         0.0000 
     26 C26        -3.7324   -3.1195   -0.1675 C.ar      1 UNK         0.0000 
     27 C27        -5.4232    0.7117   -0.8764 C.2       1 UNK         0.0000 
     28 C28         1.0475    0.1490    0.8358 C.2       1 UNK         0.0000 
     29 C29        -1.9844    1.4798   -0.7587 C.2       1 UNK         0.0000 
     30 C30        -1.7411    3.8340    2.2854 C.3       1 UNK         0.0000 
     31 C31         4.4372   -0.4934   -0.3544 C.2       1 UNK         0.0000 
     32 C32         2.1176   -0.8223    0.3326 C.3       1 UNK         0.0000 
     33 C33        -0.8907    1.5352    0.3061 C.3       1 UNK         0.0000 
     34 H34         1.9522   -1.0746   -0.7187 H         1 UNK         0.0000 
     35 H35        -1.2895    1.2728    1.2926 H         1 UNK         0.0000 
     36 H36        -3.3607    5.2671    1.9974 H         1 UNK         0.0000 
     37 H37        -3.0101    4.9024    3.6970 H         1 UNK         0.0000 
     38 H38        -1.9149    5.9399    2.7690 H         1 UNK         0.0000 
     39 H39        -0.1028    2.6077    3.0675 H         1 UNK         0.0000 
     40 H40         0.1137    4.3560    3.2778 H         1 UNK         0.0000 
     41 H41        -1.0287    3.4741    4.3048 H         1 UNK         0.0000 
     42 H42         1.4183   -4.0355   -0.6380 H         1 UNK         0.0000 
     43 H43        -0.0850   -1.8388    2.7285 H         1 UNK         0.0000 
     44 H44        -3.3054   -0.4363   -2.1765 H         1 UNK         0.0000 
     45 H45        -6.4203   -1.2388    0.6797 H         1 UNK         0.0000 
     46 H46        -0.8630   -4.9624   -1.0512 H         1 UNK         0.0000 
     47 H47        -2.3608   -2.7638    2.3060 H         1 UNK         0.0000 
     48 H48        -2.2760   -2.6145   -1.6715 H         1 UNK         0.0000 
     49 H49        -5.3390   -3.4380    1.2183 H         1 UNK         0.0000 
     50 H50         2.3222   -1.8391    2.2157 H         1 UNK         0.0000 
     51 H51         2.9558   -2.7320    0.8164 H         1 UNK         0.0000 
     52 H52        -4.0374    1.6890   -2.2400 H         1 UNK         0.0000 
     53 H53        -4.9030    2.7681   -1.1239 H         1 UNK         0.0000 
     54 H54        -0.6254    4.9872    0.8611 H         1 UNK         0.0000 
     55 H55        -2.0313    4.1962    0.1723 H         1 UNK         0.0000 
     56 H56         0.0668    3.1875   -0.6721 H         1 UNK         0.0000 
     57 H57         0.6264    2.8774    0.9713 H         1 UNK         0.0000 
     58 H58        -2.4218    2.9685    2.2869 H         1 UNK         0.0000 
     59 H59        -3.3871    1.9173    0.6511 H         1 UNK         0.0000 
     60 H60         0.1493    0.2518   -1.0189 H         1 UNK         0.0000 
     61 H61         3.5706    0.4190    1.2589 H         1 UNK         0.0000 
     62 O62         5.5480    0.1564    0.0278 O.3       1 UNK         0.0000 
     63 C63         6.8126   -0.0375   -0.6802 C.3       1 UNK         0.0000 
     64 C64         7.7640    0.8818    0.0772 C.3       1 UNK         0.0000 
     65 H65         8.7625    0.8240   -0.3640 H         1 UNK         0.0000 
     66 H66         7.4168    1.9173    0.0250 H         1 UNK         0.0000 
     67 H67         7.8272    0.5841    1.1275 H         1 UNK         0.0000 
     68 C68         7.2643   -1.4903   -0.5615 C.3       1 UNK         0.0000 
     69 H69         7.2832   -1.7926    0.4900 H         1 UNK         0.0000 
     70 H70         6.6043   -2.1580   -1.1159 H         1 UNK         0.0000 
     71 H71         8.2780   -1.5823   -0.9625 H         1 UNK         0.0000 
     72 C72         6.6753    0.4125   -2.1317 C.3       1 UNK         0.0000 
     73 H73         6.0168   -0.2511   -2.6930 H         1 UNK         0.0000 
     74 H74         6.2802    1.4320   -2.1725 H         1 UNK         0.0000 
     75 H75         7.6635    0.4091   -2.6012 H         1 UNK         0.0000 
@<TRIPOS>BOND
     1    1   37 1    
     2    1   30 1    
     3    1   36 1    
     4    1   38 1    
     5    2   59 1    
     6    2   20 1    
     7    2   29 am   BACKBONE|DICT|INTERRES
     8    3   27 2    
     9    4   41 1    
    10    4   30 1    
    11    4   39 1    
    12    4   40 1    
    13    5   33 1    
    14    5   28 am   BACKBONE|DICT|INTERRES
    15    5   60 1    
    16    6   28 2    
    17    7   61 1    
    18    7   31 am   BACKBONE|DICT|INTERRES
    19    7   32 1    
    20    8   29 2    
    21    9   23 ar   
    22    9   15 ar   
    23    9   42 1    
    24   10   31 2    
    25   11   43 1    
    26   11   16 ar   
    27   11   23 ar   
    28   12   25 1    
    29   12   26 1    
    30   13   17 ar   
    31   13   24 ar   
    32   13   44 1    
    33   14   45 1    
    34   14   18 ar   
    35   14   24 ar   
    36   15   25 ar   
    37   15   46 1    
    38   16   47 1    
    39   16   25 ar   
    40   17   26 ar   
    41   17   48 1    
    42   18   49 1    
    43   18   26 ar   
    44   19   50 1    
    45   19   23 1    
    46   19   32 1    
    47   19   51 1    
    48   20   27 1    
    49   20   52 1    
    50   20   53 1    
    51   21   30 1    
    52   21   22 1    
    53   21   54 1    
    54   21   55 1    
    55   22   33 1    
    56   22   57 1    
    57   22   56 1    
    58   24   27 1    
    59   28   32 1    
    60   29   33 1    
    61   30   58 1    
    62   31   62 1    
    63   32   34 1    
    64   33   35 1    
    65   62   63 1    
    66   63   68 1    
    67   63   64 1    
    68   63   72 1    
    69   64   67 1    
    70   64   65 1    
    71   64   66 1    
    72   68   69 1    
    73   68   70 1    
    74   68   71 1    
    75   72   73 1    
    76   72   74 1    
    77   72   75 1    
@<TRIPOS>SUBSTRUCTURE
     1 UNK         1 GROUP             0       ****    0 ROOT    
@<TRIPOS>MOLECULE
Cpd1-4-MEC
75   77    1
SMALL
USER_CHARGES


@<TRIPOS>ATOM
      1 C1         -1.4968    6.4689    1.3745 C.3       1 UNK         0.0000 
      2 N2         -3.2285    1.7376   -0.3285 N.am      1 UNK         0.0000 
      3 O3         -6.5781    1.0132   -0.6334 O.2       1 UNK         0.0000 
      4 C4          0.2637    5.9181   -0.3323 C.3       1 UNK         0.0000 
      5 N5          0.1114    0.5336   -0.0514 N.am      1 UNK         0.0000 
      6 O6          1.0895    0.5745    1.9929 O.2       1 UNK         0.0000 
      7 N7          3.3859   -0.1242    0.4439 N.am      1 UNK         0.0000 
      8 O8         -1.7070    1.2432   -1.9456 O.2       1 UNK         0.0000 
      9 C9          0.5964   -3.7652    0.0294 C.ar      1 UNK         0.0000 
     10 O10         4.3882   -1.3497   -1.1959 O.2       1 UNK         0.0000 
     11 C11        -0.2660   -2.5264    1.9054 C.ar      1 UNK         0.0000 
     12 O12        -3.0379   -4.2465    0.2404 O.3       1 UNK         0.0000 
     13 C13        -3.7746   -1.0875   -1.4432 C.ar      1 UNK         0.0000 
     14 C14        -5.5223   -1.5639    0.1606 C.ar      1 UNK         0.0000 
     15 C15        -0.6711   -4.2972   -0.2160 C.ar      1 UNK         0.0000 
     16 C16        -1.5332   -3.0459    1.6713 C.ar      1 UNK         0.0000 
     17 C17        -3.1926   -2.3146   -1.1772 C.ar      1 UNK         0.0000 
     18 C18        -4.9300   -2.7910    0.4524 C.ar      1 UNK         0.0000 
     19 C19         2.1151   -2.1153    1.1960 C.3       1 UNK         0.0000 
     20 C20        -4.3947    1.8029   -1.1925 C.3       1 UNK         0.0000 
     21 C21        -1.1777    4.0824    0.6637 C.3       1 UNK         0.0000 
     22 C22        -0.2238    2.9602    0.2552 C.3       1 UNK         0.0000 
     23 C23         0.8052   -2.8469    1.0626 C.ar      1 UNK         0.0000 
     24 C24        -4.9185   -0.6843   -0.7440 C.ar      1 UNK         0.0000 
     25 C25        -1.7316   -3.8920    0.5828 C.ar      1 UNK         0.0000 
     26 C26        -3.7353   -3.1272   -0.1792 C.ar      1 UNK         0.0000 
     27 C27        -5.4216    0.7101   -0.8586 C.2       1 UNK         0.0000 
     28 C28         1.0518    0.1558    0.8366 C.2       1 UNK         0.0000 
     29 C29        -1.9761    1.4848   -0.7714 C.2       1 UNK         0.0000 
     30 C30        -0.4792    5.4255    0.9114 C.3       1 UNK         0.0000 
     31 C31         4.4548   -0.5246   -0.2988 C.2       1 UNK         0.0000 
     32 C32         2.1194   -0.8256    0.3468 C.3       1 UNK         0.0000 
     33 C33        -0.8668    1.5600    0.2756 C.3       1 UNK         0.0000 
     34 H34         1.9611   -1.0823   -0.7046 H         1 UNK         0.0000 
     35 H35        -1.2583    1.3490    1.2770 H         1 UNK         0.0000 
     36 H36        -2.0295    6.1361    2.2713 H         1 UNK         0.0000 
     37 H37        -1.0086    7.4212    1.6028 H         1 UNK         0.0000 
     38 H38        -2.2393    6.6526    0.5886 H         1 UNK         0.0000 
     39 H39         1.0751    5.2442   -0.6214 H         1 UNK         0.0000 
     40 H40        -0.4273    6.0007   -1.1805 H         1 UNK         0.0000 
     41 H41         0.6990    6.9067   -0.1563 H         1 UNK         0.0000 
     42 H42         1.4253   -4.0390   -0.6186 H         1 UNK         0.0000 
     43 H43        -0.1099   -1.8305    2.7257 H         1 UNK         0.0000 
     44 H44        -3.3088   -0.4318   -2.1719 H         1 UNK         0.0000 
     45 H45        -6.4202   -1.2496    0.6841 H         1 UNK         0.0000 
     46 H46        -0.8519   -4.9692   -1.0488 H         1 UNK         0.0000 
     47 H47        -2.3802   -2.7609    2.2883 H         1 UNK         0.0000 
     48 H48        -2.2813   -2.6155   -1.6827 H         1 UNK         0.0000 
     49 H49        -5.3397   -3.4535    1.2072 H         1 UNK         0.0000 
     50 H50         2.3004   -1.8324    2.2373 H         1 UNK         0.0000 
     51 H51         2.9491   -2.7338    0.8502 H         1 UNK         0.0000 
     52 H52        -4.0466    1.6970   -2.2241 H         1 UNK         0.0000 
     53 H53        -4.8973    2.7669   -1.0883 H         1 UNK         0.0000 
     54 H54        -1.9462    4.2257   -0.1095 H         1 UNK         0.0000 
     55 H55        -1.7053    3.7912    1.5837 H         1 UNK         0.0000 
     56 H56         0.1699    3.1274   -0.7536 H         1 UNK         0.0000 
     57 H57         0.6278    2.9274    0.9443 H         1 UNK         0.0000 
     58 H58         0.2546    5.2773    1.7166 H         1 UNK         0.0000 
     59 H59        -3.3594    1.9183    0.6580 H         1 UNK         0.0000 
     60 H60         0.1557    0.2334   -1.0186 H         1 UNK         0.0000 
     61 H61         3.5589    0.4291    1.2740 H         1 UNK         0.0000 
     62 O62         5.5598    0.1322    0.0889 O.3       1 UNK         0.0000 
     63 C63         6.8402   -0.0909   -0.5807 C.3       1 UNK         0.0000 
     64 C64         7.2790   -1.5417   -0.4049 C.3       1 UNK         0.0000 
     65 H65         8.3031   -1.6518   -0.7738 H         1 UNK         0.0000 
     66 H66         7.2661   -1.8117    0.6555 H         1 UNK         0.0000 
     67 H67         6.6306   -2.2224   -0.9573 H         1 UNK         0.0000 
     68 C68         6.7420    0.3131   -2.0488 C.3       1 UNK         0.0000 
     69 H69         6.0875   -0.3603   -2.6029 H         1 UNK         0.0000 
     70 H70         6.3616    1.3357   -2.1320 H         1 UNK         0.0000 
     71 H71         7.7406    0.2816   -2.4946 H         1 UNK         0.0000 
     72 C72         7.7785    0.8465    0.1706 C.3       1 UNK         0.0000 
     73 H73         7.4375    1.8815    0.0797 H         1 UNK         0.0000 
     74 H74         7.8164    0.5802    1.2306 H         1 UNK         0.0000 
     75 H75         8.7864    0.7715   -0.2458 H         1 UNK         0.0000 
@<TRIPOS>BOND
     1    1   37 1    
     2    1   36 1    
     3    1   30 1    
     4    1   38 1    
     5    2   59 1    
     6    2   20 1    
     7    2   29 am   BACKBONE|DICT|INTERRES
     8    3   27 2    
     9    4   41 1    
    10    4   30 1    
    11    4   39 1    
    12    4   40 1    
    13    5   33 1    
    14    5   28 am   BACKBONE|DICT|INTERRES
    15    5   60 1    
    16    6   28 2    
    17    7   61 1    
    18    7   31 am   BACKBONE|DICT|INTERRES
    19    7   32 1    
    20    8   29 2    
    21    9   23 ar   
    22    9   15 ar   
    23    9   42 1    
    24   10   31 2    
    25   11   43 1    
    26   11   16 ar   
    27   11   23 ar   
    28   12   25 1    
    29   12   26 1    
    30   13   17 ar   
    31   13   24 ar   
    32   13   44 1    
    33   14   18 ar   
    34   14   45 1    
    35   14   24 ar   
    36   15   25 ar   
    37   15   46 1    
    38   16   47 1    
    39   16   25 ar   
    40   17   26 ar   
    41   17   48 1    
    42   18   49 1    
    43   18   26 ar   
    44   19   50 1    
    45   19   23 1    
    46   19   32 1    
    47   19   51 1    
    48   20   53 1    
    49   20   27 1    
    50   20   52 1    
    51   21   30 1    
    52   21   55 1    
    53   21   22 1    
    54   21   54 1    
    55   22   33 1    
    56   22   57 1    
    57   22   56 1    
    58   24   27 1    
    59   28   32 1    
    60   29   33 1    
    61   30   58 1    
    62   31   62 1    
    63   32   34 1    
    64   33   35 1    
    65   62   63 1    
    66   63   64 1    
    67   63   72 1    
    68   63   68 1    
    69   64   66 1    
    70   64   65 1    
    71   64   67 1    
    72   68   69 1    
    73   68   70 1    
    74   68   71 1    
    75   72   74 1    
    76   72   73 1    
    77   72   75 1    
@<TRIPOS>SUBSTRUCTURE
     1 UNK         1 GROUP             0       ****    0 ROOT    
@<TRIPOS>MOLECULE
Cpd1-5
75   77    1
SMALL
USER_CHARGES


@<TRIPOS>ATOM
      1 C1         -2.3513    5.2979    2.4813 C.3       1 UNK         0.0000 
      2 N2         -3.2361    1.7897   -0.3501 N.am      1 UNK         0.0000 
      3 O3         -6.5788    0.9920   -0.6572 O.2       1 UNK         0.0000 
      4 C4         -0.5063    3.7079    3.1305 C.3       1 UNK         0.0000 
      5 N5          0.0752    0.5493   -0.1021 N.am      1 UNK         0.0000 
      6 O6          0.9126    0.4216    2.0037 O.2       1 UNK         0.0000 
      7 N7          3.3168   -0.1480    0.3012 N.am      1 UNK         0.0000 
      8 O8         -1.7191    1.3936   -1.9960 O.2       1 UNK         0.0000 
      9 C9          0.6114   -3.7892    0.0355 C.ar      1 UNK         0.0000 
     10 O10         2.8344    0.9771   -1.6225 O.2       1 UNK         0.0000 
     11 C11        -0.2220   -2.5833    1.9454 C.ar      1 UNK         0.0000 
     12 O12        -3.0220   -4.2434    0.2713 O.3       1 UNK         0.0000 
     13 C13        -5.5097   -1.5658    0.1469 C.ar      1 UNK         0.0000 
     14 C14        -3.7109   -1.0553   -1.3876 C.ar      1 UNK         0.0000 
     15 C15        -0.6587   -4.3182   -0.1999 C.ar      1 UNK         0.0000 
     16 C16        -1.4932   -3.0976    1.7190 C.ar      1 UNK         0.0000 
     17 C17        -4.9177   -2.7911    0.4452 C.ar      1 UNK         0.0000 
     18 C18        -3.1265   -2.2800   -1.1137 C.ar      1 UNK         0.0000 
     19 C19         2.1314   -2.1170    1.1667 C.3       1 UNK         0.0000 
     20 C20        -4.4109    1.8267   -1.2031 C.3       1 UNK         0.0000 
     21 C21        -1.0373    4.1447    0.6835 C.3       1 UNK         0.0000 
     22 C22        -0.1644    2.9782    0.2171 C.3       1 UNK         0.0000 
     23 C23         0.8332   -2.8811    1.0751 C.ar      1 UNK         0.0000 
     24 C24        -4.8850   -0.6712   -0.7286 C.ar      1 UNK         0.0000 
     25 C25        -1.7091   -3.9179    0.6149 C.ar      1 UNK         0.0000 
     26 C26        -3.6996   -3.1125   -0.1492 C.ar      1 UNK         0.0000 
     27 C27        -5.4124    0.7126   -0.8634 C.2       1 UNK         0.0000 
     28 C28         0.9511    0.0942    0.8184 C.2       1 UNK         0.0000 
     29 C29        -1.9809    1.5768   -0.8103 C.2       1 UNK         0.0000 
     30 C30        -1.6009    4.0188    2.1074 C.3       1 UNK         0.0000 
     31 C31         3.5426    0.8160   -0.6414 C.2       1 UNK         0.0000 
     32 C32         2.0462   -0.8530    0.2989 C.3       1 UNK         0.0000 
     33 C33        -0.8655    1.6064    0.2319 C.3       1 UNK         0.0000 
     34 H34         1.8318   -1.1364   -0.7358 H         1 UNK         0.0000 
     35 H35        -1.2549    1.3903    1.2318 H         1 UNK         0.0000 
     36 H36        -3.1339    5.5289    1.7509 H         1 UNK         0.0000 
     37 H37        -2.8192    5.2082    3.4663 H         1 UNK         0.0000 
     38 H38        -1.6591    6.1475    2.5130 H         1 UNK         0.0000 
     39 H39        -0.0426    2.7318    2.9547 H         1 UNK         0.0000 
     40 H40         0.2803    4.4719    3.0857 H         1 UNK         0.0000 
     41 H41        -0.9169    3.7086    4.1451 H         1 UNK         0.0000 
     42 H42         1.4288   -4.0502   -0.6322 H         1 UNK         0.0000 
     43 H43        -0.0555   -1.8966    2.7704 H         1 UNK         0.0000 
     44 H44        -6.4296   -1.2667    0.6400 H         1 UNK         0.0000 
     45 H45        -3.2280   -0.3895   -2.0963 H         1 UNK         0.0000 
     46 H46        -0.8514   -4.9752   -1.0420 H         1 UNK         0.0000 
     47 H47        -2.3320   -2.8193    2.3499 H         1 UNK         0.0000 
     48 H48        -5.3501   -3.4671    1.1751 H         1 UNK         0.0000 
     49 H49        -2.1947   -2.5643   -1.5902 H         1 UNK         0.0000 
     50 H50         2.3333   -1.8219    2.2018 H         1 UNK         0.0000 
     51 H51         2.9709   -2.7187    0.8062 H         1 UNK         0.0000 
     52 H52        -4.0682    1.7262   -2.2372 H         1 UNK         0.0000 
     53 H53        -4.9366    2.7784   -1.0992 H         1 UNK         0.0000 
     54 H54        -0.4295    5.0585    0.6385 H         1 UNK         0.0000 
     55 H55        -1.8669    4.2960   -0.0203 H         1 UNK         0.0000 
     56 H56         0.1907    3.1576   -0.8043 H         1 UNK         0.0000 
     57 H57         0.7216    2.8871    0.8548 H         1 UNK         0.0000 
     58 H58        -2.3281    3.1931    2.1352 H         1 UNK         0.0000 
     59 H59        -3.3682    1.9082    0.6453 H         1 UNK         0.0000 
     60 H60         0.2721    0.4084   -1.0877 H         1 UNK         0.0000 
     61 H61         3.8045   -0.0464    1.1826 H         1 UNK         0.0000 
     62 O62         4.6440    1.5164   -0.3393 O.3       1 UNK         0.0000 
     63 C63         5.0923    2.6164   -1.1942 C.3       1 UNK         0.0000 
     64 C64         4.0219    3.7026   -1.2538 C.3       1 UNK         0.0000 
     65 H65         4.4355    4.5819   -1.7564 H         1 UNK         0.0000 
     66 H66         3.1416    3.3656   -1.8020 H         1 UNK         0.0000 
     67 H67         3.7265    3.9941   -0.2411 H         1 UNK         0.0000 
     68 C68         6.3298    3.1241   -0.4635 C.3       1 UNK         0.0000 
     69 H69         6.0666    3.4663    0.5413 H         1 UNK         0.0000 
     70 H70         7.0769    2.3300   -0.3806 H         1 UNK         0.0000 
     71 H71         6.7669    3.9604   -1.0153 H         1 UNK         0.0000 
     72 C72         5.4634    2.0875   -2.5760 C.3       1 UNK         0.0000 
     73 H73         6.1826    1.2681   -2.4836 H         1 UNK         0.0000 
     74 H74         4.5837    1.7352   -3.1154 H         1 UNK         0.0000 
     75 H75         5.9318    2.8915   -3.1513 H         1 UNK         0.0000 
@<TRIPOS>BOND
     1    1   38 1    
     2    1   37 1    
     3    1   30 1    
     4    1   36 1    
     5    2   59 1    
     6    2   20 1    
     7    2   29 am   BACKBONE|DICT|INTERRES
     8    3   27 2    
     9    4   41 1    
    10    4   30 1    
    11    4   39 1    
    12    4   40 1    
    13    5   33 1    
    14    5   28 am   BACKBONE|DICT|INTERRES
    15    5   60 1    
    16    6   28 2    
    17    7   61 1    
    18    7   31 am   BACKBONE|DICT|INTERRES
    19    7   32 1    
    20    8   29 2    
    21    9   23 ar   
    22    9   15 ar   
    23    9   42 1    
    24   10   31 2    
    25   11   43 1    
    26   11   16 ar   
    27   11   23 ar   
    28   12   25 1    
    29   12   26 1    
    30   13   17 ar   
    31   13   44 1    
    32   13   24 ar   
    33   14   18 ar   
    34   14   24 ar   
    35   14   45 1    
    36   15   25 ar   
    37   15   46 1    
    38   16   47 1    
    39   16   25 ar   
    40   17   48 1    
    41   17   26 ar   
    42   18   26 ar   
    43   18   49 1    
    44   19   50 1    
    45   19   23 1    
    46   19   32 1    
    47   19   51 1    
    48   20   53 1    
    49   20   27 1    
    50   20   52 1    
    51   21   30 1    
    52   21   22 1    
    53   21   54 1    
    54   21   55 1    
    55   22   33 1    
    56   22   57 1    
    57   22   56 1    
    58   24   27 1    
    59   28   32 1    
    60   29   33 1    
    61   30   58 1    
    62   31   62 1    
    63   32   34 1    
    64   33   35 1    
    65   62   63 1    
    66   63   68 1    
    67   63   64 1    
    68   63   72 1    
    69   64   67 1    
    70   64   65 1    
    71   64   66 1    
    72   68   70 1    
    73   68   69 1    
    74   68   71 1    
    75   72   73 1    
    76   72   74 1    
    77   72   75 1    
@<TRIPOS>SUBSTRUCTURE
     1 UNK         1 GROUP             0       ****    0 ROOT    
@<TRIPOS>MOLECULE
Cpd1-6
75   77    1
SMALL
USER_CHARGES


@<TRIPOS>ATOM
      1 C1          1.1349    5.6843   -1.5202 C.3       1 UNK         0.0000 
      2 N2         -3.2634    1.8064   -0.3857 N.am      1 UNK         0.0000 
      3 O3         -6.5809    1.0247   -0.6888 O.2       1 UNK         0.0000 
      4 N4          0.1153    0.5925   -0.0442 N.am      1 UNK         0.0000 
      5 O5          0.9568    0.3890    2.0509 O.2       1 UNK         0.0000 
      6 N6          3.3672   -0.1236    0.3298 N.am      1 UNK         0.0000 
      7 O7         -1.7018    1.1797   -1.9171 O.2       1 UNK         0.0000 
      8 C8          0.6057   -3.7411   -0.0160 C.ar      1 UNK         0.0000 
      9 O9          2.9851    0.9326   -1.6553 O.2       1 UNK         0.0000 
     10 C10        -0.1908   -2.5631    1.9262 C.ar      1 UNK         0.0000 
     11 O11        -3.0233   -4.2114    0.2901 O.3       1 UNK         0.0000 
     12 C12        -3.7741   -1.0852   -1.4573 C.ar      1 UNK         0.0000 
     13 C13        -5.4898   -1.5102    0.1931 C.ar      1 UNK         0.0000 
     14 C14        -0.6696   -4.2640   -0.2361 C.ar      1 UNK         0.0000 
     15 C15        -1.4677   -3.0698    1.7139 C.ar      1 UNK         0.0000 
     16 C16        -3.1853   -2.3036   -1.1635 C.ar      1 UNK         0.0000 
     17 C17        -4.8927   -2.7288    0.5098 C.ar      1 UNK         0.0000 
     18 C18         2.1610   -2.1090    1.1288 C.3       1 UNK         0.0000 
     19 C19        -4.4061    1.8189   -1.2823 C.3       1 UNK         0.0000 
     20 C20         0.0048    3.6523   -0.5693 C.3       1 UNK         0.0000 
     21 C21        -0.5073    2.9023    0.6594 C.3       1 UNK         0.0000 
     22 C22         0.8498   -2.8520    1.0349 C.ar      1 UNK         0.0000 
     23 C23        -4.9060   -0.6599   -0.7521 C.ar      1 UNK         0.0000 
     24 C24        -1.7049   -3.8767    0.6045 C.ar      1 UNK         0.0000 
     25 C25        -3.7125   -3.0890   -0.1364 C.ar      1 UNK         0.0000 
     26 C26        -5.4227    0.7268   -0.9123 C.2       1 UNK         0.0000 
     27 C27         0.9967    0.1107    0.8525 C.2       1 UNK         0.0000 
     28 C28        -2.0102    1.4551   -0.7619 C.2       1 UNK         0.0000 
     29 C29         0.6785    4.9899   -0.2362 C.3       1 UNK         0.0000 
     30 C30         3.6426    0.8043   -0.6355 C.2       1 UNK         0.0000 
     31 C31         2.0915   -0.8165    0.3008 C.3       1 UNK         0.0000 
     32 C32        -0.9723    1.4627    0.3600 C.3       1 UNK         0.0000 
     33 H33         1.8815   -1.0628   -0.7438 H         1 UNK         0.0000 
     34 H34        -1.4109    1.0389    1.2708 H         1 UNK         0.0000 
     35 H35         0.2665    5.9647   -2.1284 H         1 UNK         0.0000 
     36 H36         1.6974    6.5965   -1.2971 H         1 UNK         0.0000 
     37 H37         1.7706    5.0310   -2.1256 H         1 UNK         0.0000 
     38 H38         1.4111   -3.9962   -0.7004 H         1 UNK         0.0000 
     39 H39        -0.0073   -1.8916    2.7598 H         1 UNK         0.0000 
     40 H40        -3.3235   -0.4545   -2.2160 H         1 UNK         0.0000 
     41 H41        -6.3782   -1.1808    0.7235 H         1 UNK         0.0000 
     42 H42        -0.8775   -4.9117   -1.0819 H         1 UNK         0.0000 
     43 H43        -2.2938   -2.8019    2.3661 H         1 UNK         0.0000 
     44 H44        -2.2846   -2.6187   -1.6789 H         1 UNK         0.0000 
     45 H45        -5.2908   -3.3693    1.2896 H         1 UNK         0.0000 
     46 H46         2.3807   -1.8479    2.1694 H         1 UNK         0.0000 
     47 H47         2.9858   -2.7137    0.7407 H         1 UNK         0.0000 
     48 H48        -4.0302    1.6694   -2.2984 H         1 UNK         0.0000 
     49 H49        -4.9242    2.7789   -1.2358 H         1 UNK         0.0000 
     50 H50         0.7230    3.0183   -1.1081 H         1 UNK         0.0000 
     51 H51        -0.8281    3.8420   -1.2628 H         1 UNK         0.0000 
     52 H52         0.2788    2.8306    1.4199 H         1 UNK         0.0000 
     53 H53        -1.3459    3.4409    1.1158 H         1 UNK         0.0000 
     54 H54        -3.4346    1.9801    0.5961 H         1 UNK         0.0000 
     55 H55         0.2258    0.4073   -1.0352 H         1 UNK         0.0000 
     56 H56         3.8213    0.0012    1.2261 H         1 UNK         0.0000 
     57 O57         4.7324    1.5116   -0.3053 O.3       1 UNK         0.0000 
     58 C58         5.2477    2.5520   -1.1954 C.3       1 UNK         0.0000 
     59 C59         6.4320    3.1065   -0.4128 C.3       1 UNK         0.0000 
     60 H60         6.9159    3.8998   -0.9886 H         1 UNK         0.0000 
     61 H61         6.0983    3.5203    0.5428 H         1 UNK         0.0000 
     62 H62         7.1641    2.3179   -0.2187 H         1 UNK         0.0000 
     63 C63         5.7130    1.9284   -2.5076 C.3       1 UNK         0.0000 
     64 H64         6.4256    1.1223   -2.3084 H         1 UNK         0.0000 
     65 H65         4.8715    1.5327   -3.0776 H         1 UNK         0.0000 
     66 H66         6.2171    2.6918   -3.1074 H         1 UNK         0.0000 
     67 C67         4.1911    3.6321   -1.4092 C.3       1 UNK         0.0000 
     68 H68         3.3585    3.2570   -2.0050 H         1 UNK         0.0000 
     69 H69         3.8118    3.9855   -0.4447 H         1 UNK         0.0000 
     70 H70         4.6449    4.4808   -1.9300 H         1 UNK         0.0000 
     71 C71        -0.2405    5.9153    0.5651 C.3       1 UNK         0.0000 
     72 H72        -1.1836    6.0736    0.0266 H         1 UNK         0.0000 
     73 H73        -0.4777    5.5094    1.5527 H         1 UNK         0.0000 
     74 H74         0.2287    6.8931    0.7125 H         1 UNK         0.0000 
     75 H75         1.5658    4.7731    0.3767 H         1 UNK         0.0000 
@<TRIPOS>BOND
     1    1   36 1    
     2    1   29 1    
     3    1   35 1    
     4    1   37 1    
     5    2   54 1    
     6    2   19 1    
     7    2   28 am   BACKBONE|DICT|INTERRES
     8    3   26 2    
     9    4   32 1    
    10    4   27 am   BACKBONE|DICT|INTERRES
    11    4   55 1    
    12    5   27 2    
    13    6   56 1    
    14    6   30 am   BACKBONE|DICT|INTERRES
    15    6   31 1    
    16    7   28 2    
    17    8   22 ar   
    18    8   14 ar   
    19    8   38 1    
    20    9   30 2    
    21   10   39 1    
    22   10   15 ar   
    23   10   22 ar   
    24   11   24 1    
    25   11   25 1    
    26   12   16 ar   
    27   12   23 ar   
    28   12   40 1    
    29   13   17 ar   
    30   13   41 1    
    31   13   23 ar   
    32   14   24 ar   
    33   14   42 1    
    34   15   43 1    
    35   15   24 ar   
    36   16   25 ar   
    37   16   44 1    
    38   17   45 1    
    39   17   25 ar   
    40   18   46 1    
    41   18   22 1    
    42   18   31 1    
    43   18   47 1    
    44   19   26 1    
    45   19   49 1    
    46   19   48 1    
    47   20   29 1    
    48   20   21 1    
    49   20   50 1    
    50   20   51 1    
    51   21   53 1    
    52   21   52 1    
    53   21   32 1    
    54   23   26 1    
    55   27   31 1    
    56   28   32 1    
    57   29   75 1    
    58   29   71 1    
    59   30   57 1    
    60   31   33 1    
    61   32   34 1    
    62   57   58 1    
    63   58   59 1    
    64   58   63 1    
    65   58   67 1    
    66   59   62 1    
    67   59   61 1    
    68   59   60 1    
    69   63   64 1    
    70   63   65 1    
    71   63   66 1    
    72   67   69 1    
    73   67   68 1    
    74   67   70 1    
    75   71   74 1    
    76   71   73 1    
    77   71   72 1    
@<TRIPOS>SUBSTRUCTURE
     1 UNK         1 GROUP             0       ****    0 ROOT    
@<TRIPOS>MOLECULE
Cpd1-7
75   77    1
SMALL
USER_CHARGES


@<TRIPOS>ATOM
      1 C1          1.8745    5.2657   -0.4772 C.3       1 UNK         0.0000 
      2 N2         -3.2026    1.7940   -0.3836 N.am      1 UNK         0.0000 
      3 O3         -6.5378    1.0208   -0.5488 O.2       1 UNK         0.0000 
      4 C4          2.4788    5.0903    1.9541 C.3       1 UNK         0.0000 
      5 N5          0.1735    0.6683   -0.1048 N.am      1 UNK         0.0000 
      6 O6          0.8652    0.4237    2.0461 O.2       1 UNK         0.0000 
      7 N7          3.3111   -0.0610    0.4948 N.am      1 UNK         0.0000 
      8 O8         -1.7118    1.2068   -1.9998 O.2       1 UNK         0.0000 
      9 C9          0.5958   -3.7424    0.0040 C.ar      1 UNK         0.0000 
     10 O10         4.2715   -0.9744   -1.3621 O.2       1 UNK         0.0000 
     11 C11        -0.2634   -2.5920    1.9369 C.ar      1 UNK         0.0000 
     12 O12        -3.0315   -4.2714    0.2273 O.3       1 UNK         0.0000 
     13 C13        -3.7606   -1.0931   -1.4261 C.ar      1 UNK         0.0000 
     14 C14        -5.4837   -1.5563    0.2076 C.ar      1 UNK         0.0000 
     15 C15        -0.6660   -4.2848   -0.2475 C.ar      1 UNK         0.0000 
     16 C16        -1.5252   -3.1219    1.6962 C.ar      1 UNK         0.0000 
     17 C17        -3.1869   -2.3274   -1.1741 C.ar      1 UNK         0.0000 
     18 C18        -4.9004   -2.7910    0.4837 C.ar      1 UNK         0.0000 
     19 C19         2.0982   -2.1029    1.2101 C.3       1 UNK         0.0000 
     20 C20        -4.3868    1.8026   -1.2257 C.3       1 UNK         0.0000 
     21 C21         0.8970    3.4152    0.9664 C.3       1 UNK         0.0000 
     22 C22        -0.2583    3.1132    0.0142 C.3       1 UNK         0.0000 
     23 C23         0.8018   -2.8589    1.0680 C.ar      1 UNK         0.0000 
     24 C24        -4.8882   -0.6802   -0.7065 C.ar      1 UNK         0.0000 
     25 C25        -1.7242   -3.9244    0.5759 C.ar      1 UNK         0.0000 
     26 C26        -3.7222   -3.1396   -0.1724 C.ar      1 UNK         0.0000 
     27 C27        -5.3922    0.7138   -0.8218 C.2       1 UNK         0.0000 
     28 C28         0.9634    0.1414    0.8542 C.2       1 UNK         0.0000 
     29 C29        -1.9578    1.5187   -0.8377 C.2       1 UNK         0.0000 
     30 C30         1.3774    4.8710    0.9155 C.3       1 UNK         0.0000 
     31 C31         4.3466   -0.2776   -0.3632 C.2       1 UNK         0.0000 
     32 C32         2.0706   -0.8057    0.3779 C.3       1 UNK         0.0000 
     33 C33        -0.8245    1.6883    0.1726 C.3       1 UNK         0.0000 
     34 H34         1.9422   -1.0535   -0.6795 H         1 UNK         0.0000 
     35 H35        -1.1751    1.5349    1.1984 H         1 UNK         0.0000 
     36 H36         1.0783    5.2346   -1.2262 H         1 UNK         0.0000 
     37 H37         2.2823    6.2814   -0.4691 H         1 UNK         0.0000 
     38 H38         2.6721    4.5857   -0.8020 H         1 UNK         0.0000 
     39 H39         2.1375    4.8230    2.9592 H         1 UNK         0.0000 
     40 H40         3.3519    4.4695    1.7187 H         1 UNK         0.0000 
     41 H41         2.8045    6.1351    1.9703 H         1 UNK         0.0000 
     42 H42         1.4207   -3.9784   -0.6638 H         1 UNK         0.0000 
     43 H43        -0.1090   -1.9232    2.7786 H         1 UNK         0.0000 
     44 H44        -3.3006   -0.4413   -2.1613 H         1 UNK         0.0000 
     45 H45        -6.3692   -1.2345    0.7472 H         1 UNK         0.0000 
     46 H46        -0.8457   -4.9265   -1.1042 H         1 UNK         0.0000 
     47 H47        -2.3698   -2.8725    2.3317 H         1 UNK         0.0000 
     48 H48        -2.2869   -2.6348   -1.6955 H         1 UNK         0.0000 
     49 H49        -5.3049   -3.4524    1.2424 H         1 UNK         0.0000 
     50 H50         2.2765   -1.8325    2.2556 H         1 UNK         0.0000 
     51 H51         2.9453   -2.6995    0.8570 H         1 UNK         0.0000 
     52 H52        -4.0576    1.6562   -2.2583 H         1 UNK         0.0000 
     53 H53        -4.9011    2.7632   -1.1527 H         1 UNK         0.0000 
     54 H54         0.5912    3.1709    1.9911 H         1 UNK         0.0000 
     55 H55         1.7462    2.7576    0.7315 H         1 UNK         0.0000 
     56 H56        -1.0757    3.8269    0.1845 H         1 UNK         0.0000 
     57 H57         0.0592    3.2274   -1.0290 H         1 UNK         0.0000 
     58 H58         0.5264    5.5179    1.1747 H         1 UNK         0.0000 
     59 H59        -3.3163    2.0233    0.5949 H         1 UNK         0.0000 
     60 H60         0.3009    0.4116   -1.0769 H         1 UNK         0.0000 
     61 H61         3.5075    0.4132    1.3675 H         1 UNK         0.0000 
     62 O62         5.4315    0.3990    0.0470 O.3       1 UNK         0.0000 
     63 C63         6.6707    0.3746   -0.7291 C.3       1 UNK         0.0000 
     64 C64         7.2175   -1.0480   -0.8039 C.3       1 UNK         0.0000 
     65 H65         8.2165   -1.0225   -1.2490 H         1 UNK         0.0000 
     66 H66         7.3013   -1.4710    0.2018 H         1 UNK         0.0000 
     67 H67         6.5772   -1.6885   -1.4112 H         1 UNK         0.0000 
     68 C68         6.4351    0.9814   -2.1090 C.3       1 UNK         0.0000 
     69 H69         5.7872    0.3483   -2.7158 H         1 UNK         0.0000 
     70 H70         5.9817    1.9725   -2.0107 H         1 UNK         0.0000 
     71 H71         7.3965    1.0936   -2.6187 H         1 UNK         0.0000 
     72 C72         7.5981    1.2612    0.0943 C.3       1 UNK         0.0000 
     73 H73         7.1840    2.2694    0.1822 H         1 UNK         0.0000 
     74 H74         7.7314    0.8467    1.0973 H         1 UNK         0.0000 
     75 H75         8.5752    1.3247   -0.3915 H         1 UNK         0.0000 
@<TRIPOS>BOND
     1    1   37 1    
     2    1   30 1    
     3    1   36 1    
     4    1   38 1    
     5    2   59 1    
     6    2   20 1    
     7    2   29 am   BACKBONE|DICT|INTERRES
     8    3   27 2    
     9    4   41 1    
    10    4   39 1    
    11    4   30 1    
    12    4   40 1    
    13    5   33 1    
    14    5   28 am   BACKBONE|DICT|INTERRES
    15    5   60 1    
    16    6   28 2    
    17    7   61 1    
    18    7   31 am   BACKBONE|DICT|INTERRES
    19    7   32 1    
    20    8   29 2    
    21    9   23 ar   
    22    9   15 ar   
    23    9   42 1    
    24   10   31 2    
    25   11   43 1    
    26   11   16 ar   
    27   11   23 ar   
    28   12   25 1    
    29   12   26 1    
    30   13   17 ar   
    31   13   24 ar   
    32   13   44 1    
    33   14   18 ar   
    34   14   45 1    
    35   14   24 ar   
    36   15   25 ar   
    37   15   46 1    
    38   16   47 1    
    39   16   25 ar   
    40   17   26 ar   
    41   17   48 1    
    42   18   49 1    
    43   18   26 ar   
    44   19   50 1    
    45   19   23 1    
    46   19   32 1    
    47   19   51 1    
    48   20   53 1    
    49   20   27 1    
    50   20   52 1    
    51   21   54 1    
    52   21   22 1    
    53   21   30 1    
    54   21   55 1    
    55   22   33 1    
    56   22   56 1    
    57   22   57 1    
    58   24   27 1    
    59   28   32 1    
    60   29   33 1    
    61   30   58 1    
    62   31   62 1    
    63   32   34 1    
    64   33   35 1    
    65   62   63 1    
    66   63   72 1    
    67   63   64 1    
    68   63   68 1    
    69   64   66 1    
    70   64   65 1    
    71   64   67 1    
    72   68   70 1    
    73   68   69 1    
    74   68   71 1    
    75   72   73 1    
    76   72   74 1    
    77   72   75 1    
@<TRIPOS>SUBSTRUCTURE
     1 UNK         1 GROUP             0       ****    0 ROOT    
@<TRIPOS>MOLECULE
Cpd1-8
75   77    1
SMALL
USER_CHARGES


@<TRIPOS>ATOM
      1 C1          1.4323    5.6678   -0.8896 C.3       1 UNK         0.0000 
      2 N2         -3.2986    1.8275   -0.3695 N.am      1 UNK         0.0000 
      3 O3         -6.6054    0.9952   -0.8031 O.2       1 UNK         0.0000 
      4 C4          1.2878    5.1321    1.5575 C.3       1 UNK         0.0000 
      5 N5          0.0502    0.5666   -0.0263 N.am      1 UNK         0.0000 
      6 O6          0.9888    0.3428    2.0254 O.2       1 UNK         0.0000 
      7 N7          3.2953   -0.1474    0.0720 N.am      1 UNK         0.0000 
      8 O8         -1.6920    1.3153   -1.8955 O.2       1 UNK         0.0000 
      9 C9          0.6099   -3.7858   -0.0045 C.ar      1 UNK         0.0000 
     10 O10         4.6210    1.3627   -1.0015 O.2       1 UNK         0.0000 
     11 C11        -0.1417   -2.5807    1.9385 C.ar      1 UNK         0.0000 
     12 O12        -3.0207   -4.1891    0.3489 O.3       1 UNK         0.0000 
     13 C13        -3.7134   -1.0517   -1.4101 C.ar      1 UNK         0.0000 
     14 C14        -5.5116   -1.5185    0.1362 C.ar      1 UNK         0.0000 
     15 C15        -0.6738   -4.2985   -0.1986 C.ar      1 UNK         0.0000 
     16 C16        -1.4276   -3.0753    1.7507 C.ar      1 UNK         0.0000 
     17 C17        -3.1186   -2.2602   -1.0893 C.ar      1 UNK         0.0000 
     18 C18        -4.9115   -2.7283    0.4794 C.ar      1 UNK         0.0000 
     19 C19         2.1816   -2.1175    1.0576 C.3       1 UNK         0.0000 
     20 C20        -4.4236    1.8397   -1.2876 C.3       1 UNK         0.0000 
     21 C21         0.3054    3.5391   -0.1594 C.3       1 UNK         0.0000 
     22 C22        -0.5596    2.8190    0.8731 C.3       1 UNK         0.0000 
     23 C23         0.8788   -2.8826    1.0287 C.ar      1 UNK         0.0000 
     24 C24        -4.8927   -0.6515   -0.7710 C.ar      1 UNK         0.0000 
     25 C25        -1.6923   -3.8847    0.6499 C.ar      1 UNK         0.0000 
     26 C26        -3.6901   -3.0654   -0.1004 C.ar      1 UNK         0.0000 
     27 C27        -5.4306    0.7231   -0.9626 C.2       1 UNK         0.0000 
     28 C28         0.9734    0.0794    0.8241 C.2       1 UNK         0.0000 
     29 C29        -2.0327    1.5134   -0.7320 C.2       1 UNK         0.0000 
     30 C30         0.5907    5.0031    0.2009 C.3       1 UNK         0.0000 
     31 C31         3.5928    0.7097   -0.9494 C.2       1 UNK         0.0000 
     32 C32         2.0295   -0.8492    0.2013 C.3       1 UNK         0.0000 
     33 C33        -1.0325    1.4222    0.4215 C.3       1 UNK         0.0000 
     34 H34         1.7138   -1.1424   -0.8027 H         1 UNK         0.0000 
     35 H35        -1.5181    0.9293    1.2732 H         1 UNK         0.0000 
     36 H36         0.9618    5.5713   -1.8741 H         1 UNK         0.0000 
     37 H37         1.5723    6.7332   -0.6822 H         1 UNK         0.0000 
     38 H38         2.4242    5.2032   -0.9420 H         1 UNK         0.0000 
     39 H39         0.6573    4.7871    2.3818 H         1 UNK         0.0000 
     40 H40         2.2113    4.5397    1.5667 H         1 UNK         0.0000 
     41 H41         1.5550    6.1746    1.7570 H         1 UNK         0.0000 
     42 H42         1.4008   -4.0547   -0.7005 H         1 UNK         0.0000 
     43 H43         0.0612   -1.9020    2.7615 H         1 UNK         0.0000 
     44 H44        -3.2357   -0.4106   -2.1440 H         1 UNK         0.0000 
     45 H45        -6.4355   -1.2103    0.6161 H         1 UNK         0.0000 
     46 H46        -0.9019   -4.9516   -1.0349 H         1 UNK         0.0000 
     47 H47        -2.2406   -2.7909    2.4122 H         1 UNK         0.0000 
     48 H48        -2.1859   -2.5545   -1.5577 H         1 UNK         0.0000 
     49 H49        -5.3438   -3.3821    1.2292 H         1 UNK         0.0000 
     50 H50         2.4446   -1.8286    2.0803 H         1 UNK         0.0000 
     51 H51         2.9981   -2.7133    0.6392 H         1 UNK         0.0000 
     52 H52        -4.0261    1.7155   -2.2991 H         1 UNK         0.0000 
     53 H53        -4.9601    2.7891   -1.2356 H         1 UNK         0.0000 
     54 H54         1.2612    3.0038   -0.2622 H         1 UNK         0.0000 
     55 H55        -0.1801    3.5022   -1.1455 H         1 UNK         0.0000 
     56 H56        -0.0040    2.6797    1.8036 H         1 UNK         0.0000 
     57 H57        -1.4468    3.4216    1.1096 H         1 UNK         0.0000 
     58 H58        -0.3747    5.5274    0.2572 H         1 UNK         0.0000 
     59 H59        -3.4957    1.9412    0.6165 H         1 UNK         0.0000 
     60 H60         0.1416    0.4176   -1.0260 H         1 UNK         0.0000 
     61 H61         3.8871   -0.0568    0.8877 H         1 UNK         0.0000 
     62 O62         2.6158    0.7097   -1.8719 O.3       1 UNK         0.0000 
     63 C63         2.7846    1.3705   -3.1675 C.3       1 UNK         0.0000 
     64 C64         2.9123    2.8777   -2.9815 C.3       1 UNK         0.0000 
     65 H65         2.9501    3.3558   -3.9652 H         1 UNK         0.0000 
     66 H66         2.0386    3.2633   -2.4492 H         1 UNK         0.0000 
     67 H67         3.8158    3.1352   -2.4272 H         1 UNK         0.0000 
     68 C68         3.9798    0.7704   -3.9004 C.3       1 UNK         0.0000 
     69 H69         4.9182    1.0309   -3.4087 H         1 UNK         0.0000 
     70 H70         3.8863   -0.3190   -3.9458 H         1 UNK         0.0000 
     71 H71         4.0006    1.1553   -4.9240 H         1 UNK         0.0000 
     72 C72         1.4801    1.0307   -3.8792 C.3       1 UNK         0.0000 
     73 H73         1.3768   -0.0528   -3.9930 H         1 UNK         0.0000 
     74 H74         0.6234    1.4094   -3.3114 H         1 UNK         0.0000 
     75 H75         1.4700    1.4881   -4.8721 H         1 UNK         0.0000 
@<TRIPOS>BOND
     1    1   38 1    
     2    1   36 1    
     3    1   30 1    
     4    1   37 1    
     5    2   29 am   BACKBONE|DICT|INTERRES
     6    2   20 1    
     7    2   59 1    
     8    3   27 2    
     9    4   40 1    
    10    4   30 1    
    11    4   39 1    
    12    4   41 1    
    13    5   60 1    
    14    5   28 am   BACKBONE|DICT|INTERRES
    15    5   33 1    
    16    6   28 2    
    17    7   32 1    
    18    7   31 am   BACKBONE|DICT|INTERRES
    19    7   61 1    
    20    8   29 2    
    21    9   15 ar   
    22    9   42 1    
    23    9   23 ar   
    24   10   31 2    
    25   11   16 ar   
    26   11   23 ar   
    27   11   43 1    
    28   12   26 1    
    29   12   25 1    
    30   13   44 1    
    31   13   17 ar   
    32   13   24 ar   
    33   14   24 ar   
    34   14   18 ar   
    35   14   45 1    
    36   15   46 1    
    37   15   25 ar   
    38   16   25 ar   
    39   16   47 1    
    40   17   48 1    
    41   17   26 ar   
    42   18   26 ar   
    43   18   49 1    
    44   19   23 1    
    45   19   51 1    
    46   19   32 1    
    47   19   50 1    
    48   20   52 1    
    49   20   27 1    
    50   20   53 1    
    51   21   54 1    
    52   21   55 1    
    53   21   22 1    
    54   21   30 1    
    55   22   33 1    
    56   22   56 1    
    57   22   57 1    
    58   24   27 1    
    59   28   32 1    
    60   29   33 1    
    61   30   58 1    
    62   31   62 1    
    63   32   34 1    
    64   33   35 1    
    65   62   63 1    
    66   63   68 1    
    67   63   72 1    
    68   63   64 1    
    69   64   65 1    
    70   64   66 1    
    71   64   67 1    
    72   68   70 1    
    73   68   71 1    
    74   68   69 1    
    75   72   73 1    
    76   72   75 1    
    77   72   74 1    
@<TRIPOS>SUBSTRUCTURE
     1 UNK         1 GROUP             0       ****    0 ROOT    
@<TRIPOS>MOLECULE
Cpd1-9
75   77    1
SMALL
USER_CHARGES


@<TRIPOS>ATOM
      1 C1         -2.4465    4.8954    3.3046 C.3       1 UNK         0.0000 
      2 N2         -3.4656    1.7799    0.2355 N.am      1 UNK         0.0000 
      3 O3         -5.5593    0.8597   -2.4890 O.2       1 UNK         0.0000 
      4 C4         -0.4290    3.4078    3.5772 C.3       1 UNK         0.0000 
      5 N5         -0.0936    0.5113    0.0943 N.am      1 UNK         0.0000 
      6 O6          1.1419    0.5257    1.9935 O.2       1 UNK         0.0000 
      7 N7          3.2640    0.0001    0.1869 N.am      1 UNK         0.0000 
      8 O8         -2.1902    1.1016   -1.4997 O.2       1 UNK         0.0000 
      9 C9          0.4122   -3.4690   -0.3037 C.ar      1 UNK         0.0000 
     10 O10         4.1536   -1.1166   -1.5890 O.2       1 UNK         0.0000 
     11 C11        -0.0302   -2.8100    1.9686 C.ar      1 UNK         0.0000 
     12 O12        -3.0911   -4.2150    0.5020 O.3       1 UNK         0.0000 
     13 C13        -4.7011   -0.9311    0.4976 C.ar      1 UNK         0.0000 
     14 C14        -4.3715   -1.6597   -1.7856 C.ar      1 UNK         0.0000 
     15 C15        -0.8751   -3.9878   -0.4124 C.ar      1 UNK         0.0000 
     16 C16        -1.3188   -3.3321    1.8757 C.ar      1 UNK         0.0000 
     17 C17        -4.2423   -2.1588    0.9595 C.ar      1 UNK         0.0000 
     18 C18        -3.8877   -2.8813   -1.3316 C.ar      1 UNK         0.0000 
     19 C19         2.1423   -2.0915    0.9029 C.3       1 UNK         0.0000 
     20 C20        -4.6625    1.9260   -0.5708 C.3       1 UNK         0.0000 
     21 C21        -1.3161    3.9713    1.2655 C.3       1 UNK         0.0000 
     22 C22        -0.4664    2.8936    0.5874 C.3       1 UNK         0.0000 
     23 C23         0.8351   -2.8379    0.8714 C.ar      1 UNK         0.0000 
     24 C24        -4.7267   -0.6614   -0.8742 C.ar      1 UNK         0.0000 
     25 C25        -1.7442   -3.8737    0.6681 C.ar      1 UNK         0.0000 
     26 C26        -3.7737   -3.0948    0.0401 C.ar      1 UNK         0.0000 
     27 C27        -5.0339    0.6946   -1.4059 C.2       1 UNK         0.0000 
     28 C28         0.9733    0.1514    0.8326 C.2       1 UNK         0.0000 
     29 C29        -2.2872    1.4139   -0.3161 C.2       1 UNK         0.0000 
     30 C30        -1.6719    3.7055    2.7362 C.3       1 UNK         0.0000 
     31 C31         4.2763   -0.3334   -0.6607 C.2       1 UNK         0.0000 
     32 C32         2.0179   -0.7426    0.1627 C.3       1 UNK         0.0000 
     33 C33        -1.0650    1.4687    0.5964 C.3       1 UNK         0.0000 
     34 H34         1.7592   -0.9251   -0.8845 H         1 UNK         0.0000 
     35 H35        -1.3311    1.1784    1.6193 H         1 UNK         0.0000 
     36 H36        -3.3388    5.1135    2.7081 H         1 UNK         0.0000 
     37 H37        -2.7617    4.7060    4.3351 H         1 UNK         0.0000 
     38 H38        -1.8156    5.7920    3.3048 H         1 UNK         0.0000 
     39 H39         0.0772    2.4925    3.2539 H         1 UNK         0.0000 
     40 H40         0.2851    4.2374    3.4995 H         1 UNK         0.0000 
     41 H41        -0.6966    3.2936    4.6324 H         1 UNK         0.0000 
     42 H42         1.0865   -3.5243   -1.1551 H         1 UNK         0.0000 
     43 H43         0.2942   -2.3403    2.8935 H         1 UNK         0.0000 
     44 H44        -5.0171   -0.1782    1.2129 H         1 UNK         0.0000 
     45 H45        -4.4176   -1.4426   -2.8481 H         1 UNK         0.0000 
     46 H46        -1.2222   -4.4393   -1.3361 H         1 UNK         0.0000 
     47 H47        -2.0048   -3.2814    2.7147 H         1 UNK         0.0000 
     48 H48        -4.1874   -2.3745    2.0207 H         1 UNK         0.0000 
     49 H49        -3.5442   -3.6434   -2.0227 H         1 UNK         0.0000 
     50 H50         2.4493   -1.8867    1.9333 H         1 UNK         0.0000 
     51 H51         2.9373   -2.6593    0.4089 H         1 UNK         0.0000 
     52 H52        -4.5638    2.7536   -1.2797 H         1 UNK         0.0000 
     53 H53        -5.4966    2.1505    0.1011 H         1 UNK         0.0000 
     54 H54        -0.7516    4.9124    1.2209 H         1 UNK         0.0000 
     55 H55        -2.2364    4.1449    0.6931 H         1 UNK         0.0000 
     56 H56        -0.2795    3.1679   -0.4572 H         1 UNK         0.0000 
     57 H57         0.5070    2.8237    1.0820 H         1 UNK         0.0000 
     58 H58        -2.3304    2.8246    2.7988 H         1 UNK         0.0000 
     59 H59        -3.5026    2.0122    1.2179 H         1 UNK         0.0000 
     60 H60        -0.1862    0.2272   -0.8746 H         1 UNK         0.0000 
     61 H61         3.4919    0.5121    1.0303 H         1 UNK         0.0000 
     62 O62         5.3944    0.3351   -0.3354 O.3       1 UNK         0.0000 
     63 C63         6.6217    0.1668   -1.1120 C.3       1 UNK         0.0000 
     64 C64         6.4009    0.6252   -2.5506 C.3       1 UNK         0.0000 
     65 H65         7.3627    0.6398   -3.0718 H         1 UNK         0.0000 
     66 H66         5.7229   -0.0441   -3.0811 H         1 UNK         0.0000 
     67 H67         5.9893    1.6389   -2.5624 H         1 UNK         0.0000 
     68 C68         7.5983    1.0950   -0.3987 C.3       1 UNK         0.0000 
     69 H69         7.2331    2.1254   -0.4237 H         1 UNK         0.0000 
     70 H70         7.7218    0.7906    0.6444 H         1 UNK         0.0000 
     71 H71         8.5726    1.0560   -0.8929 H         1 UNK         0.0000 
     72 C72         7.1002   -1.2797   -1.0293 C.3       1 UNK         0.0000 
     73 H73         7.1792   -1.5896    0.0173 H         1 UNK         0.0000 
     74 H74         6.4214   -1.9532   -1.5535 H         1 UNK         0.0000 
     75 H75         8.0925   -1.3540   -1.4840 H         1 UNK         0.0000 
@<TRIPOS>BOND
     1    1   30 1    
     2    1   38 1    
     3    1   36 1    
     4    1   37 1    
     5    2   29 am   BACKBONE|DICT|INTERRES
     6    2   20 1    
     7    2   59 1    
     8    3   27 2    
     9    4   39 1    
    10    4   40 1    
    11    4   30 1    
    12    4   41 1    
    13    5   60 1    
    14    5   28 am   BACKBONE|DICT|INTERRES
    15    5   33 1    
    16    6   28 2    
    17    7   31 am   BACKBONE|DICT|INTERRES
    18    7   32 1    
    19    7   61 1    
    20    8   29 2    
    21    9   15 ar   
    22    9   42 1    
    23    9   23 ar   
    24   10   31 2    
    25   11   16 ar   
    26   11   23 ar   
    27   11   43 1    
    28   12   26 1    
    29   12   25 1    
    30   13   24 ar   
    31   13   17 ar   
    32   13   44 1    
    33   14   45 1    
    34   14   18 ar   
    35   14   24 ar   
    36   15   46 1    
    37   15   25 ar   
    38   16   25 ar   
    39   16   47 1    
    40   17   26 ar   
    41   17   48 1    
    42   18   49 1    
    43   18   26 ar   
    44   19   51 1    
    45   19   32 1    
    46   19   23 1    
    47   19   50 1    
    48   20   27 1    
    49   20   52 1    
    50   20   53 1    
    51   21   54 1    
    52   21   22 1    
    53   21   55 1    
    54   21   30 1    
    55   22   56 1    
    56   22   33 1    
    57   22   57 1    
    58   24   27 1    
    59   28   32 1    
    60   29   33 1    
    61   30   58 1    
    62   31   62 1    
    63   32   34 1    
    64   33   35 1    
    65   62   63 1    
    66   63   64 1    
    67   63   68 1    
    68   63   72 1    
    69   64   67 1    
    70   64   66 1    
    71   64   65 1    
    72   68   69 1    
    73   68   71 1    
    74   68   70 1    
    75   72   75 1    
    76   72   74 1    
    77   72   73 1    
@<TRIPOS>SUBSTRUCTURE
     1 UNK         1 GROUP             0       ****    0 ROOT    
@<TRIPOS>MOLECULE
Cpd1-10
75   77    1
SMALL
USER_CHARGES


@<TRIPOS>ATOM
      1 C1         -2.3506    4.9784    3.2620 C.3       1 UNK         0.0000 
      2 N2         -3.4786    1.8019    0.2279 N.am      1 UNK         0.0000 
      3 O3         -5.5595    0.8483   -2.4896 O.2       1 UNK         0.0000 
      4 C4         -0.4094    3.3968    3.5545 C.3       1 UNK         0.0000 
      5 N5         -0.1347    0.5106    0.0617 N.am      1 UNK         0.0000 
      6 O6          0.9932    0.3596    2.0242 O.2       1 UNK         0.0000 
      7 N7          3.2084   -0.0173    0.0875 N.am      1 UNK         0.0000 
      8 O8         -2.1953    1.2708   -1.5512 O.2       1 UNK         0.0000 
      9 C9          0.4434   -3.5403   -0.2771 C.ar      1 UNK         0.0000 
     10 O10         2.5056    1.3005   -1.6356 O.2       1 UNK         0.0000 
     11 C11        -0.0022   -2.7884    1.9651 C.ar      1 UNK         0.0000 
     12 O12        -3.0735   -4.2052    0.5341 O.3       1 UNK         0.0000 
     13 C13        -4.6989   -0.9265    0.5010 C.ar      1 UNK         0.0000 
     14 C14        -4.3126   -1.6458   -1.7758 C.ar      1 UNK         0.0000 
     15 C15        -0.8477   -4.0531   -0.3717 C.ar      1 UNK         0.0000 
     16 C16        -1.2952   -3.3010    1.8854 C.ar      1 UNK         0.0000 
     17 C17        -4.2385   -2.1508    0.9707 C.ar      1 UNK         0.0000 
     18 C18        -3.8257   -2.8631   -1.3132 C.ar      1 UNK         0.0000 
     19 C19         2.1626   -2.0941    0.8647 C.3       1 UNK         0.0000 
     20 C20        -4.6820    1.9339   -0.5691 C.3       1 UNK         0.0000 
     21 C21        -1.2459    4.0025    1.2329 C.3       1 UNK         0.0000 
     22 C22        -0.4210    2.8972    0.5708 C.3       1 UNK         0.0000 
     23 C23         0.8645   -2.8621    0.8714 C.ar      1 UNK         0.0000 
     24 C24        -4.7009   -0.6541   -0.8707 C.ar      1 UNK         0.0000 
     25 C25        -1.7222   -3.8820    0.6965 C.ar      1 UNK         0.0000 
     26 C26        -3.7437   -3.0819    0.0600 C.ar      1 UNK         0.0000 
     27 C27        -5.0326    0.6963   -1.4056 C.2       1 UNK         0.0000 
     28 C28         0.8885    0.0839    0.8294 C.2       1 UNK         0.0000 
     29 C29        -2.2945    1.4943   -0.3485 C.2       1 UNK         0.0000 
     30 C30        -1.6277    3.7532    2.7001 C.3       1 UNK         0.0000 
     31 C31         3.3102    1.0582   -0.7512 C.2       1 UNK         0.0000 
     32 C32         1.9625   -0.7628    0.1270 C.3       1 UNK         0.0000 
     33 C33        -1.0736    1.4977    0.5650 C.3       1 UNK         0.0000 
     34 H34         1.6637   -0.9584   -0.9071 H         1 UNK         0.0000 
     35 H35        -1.3506    1.2042    1.5831 H         1 UNK         0.0000 
     36 H36        -3.2226    5.2410    2.6538 H         1 UNK         0.0000 
     37 H37        -2.6891    4.8024    4.2875 H         1 UNK         0.0000 
     38 H38        -1.6764    5.8429    3.2736 H         1 UNK         0.0000 
     39 H39         0.0508    2.4535    3.2428 H         1 UNK         0.0000 
     40 H40         0.3481    4.1871    3.4781 H         1 UNK         0.0000 
     41 H41        -0.6920    3.3043    4.6079 H         1 UNK         0.0000 
     42 H42         1.1178   -3.6314   -1.1253 H         1 UNK         0.0000 
     43 H43         0.3202   -2.2777    2.8682 H         1 UNK         0.0000 
     44 H44        -5.0416   -0.1799    1.2111 H         1 UNK         0.0000 
     45 H45        -4.3395   -1.4281   -2.8387 H         1 UNK         0.0000 
     46 H46        -1.1942   -4.5379   -1.2784 H         1 UNK         0.0000 
     47 H47        -1.9853   -3.2077    2.7175 H         1 UNK         0.0000 
     48 H48        -4.2060   -2.3690    2.0324 H         1 UNK         0.0000 
     49 H49        -3.4603   -3.6198   -1.9992 H         1 UNK         0.0000 
     50 H50         2.4897   -1.8854    1.8887 H         1 UNK         0.0000 
     51 H51         2.9542   -2.6502    0.3532 H         1 UNK         0.0000 
     52 H52        -4.5952    2.7629   -1.2772 H         1 UNK         0.0000 
     53 H53        -5.5167    2.1479    0.1049 H         1 UNK         0.0000 
     54 H54        -0.6557    4.9280    1.1908 H         1 UNK         0.0000 
     55 H55        -2.1556    4.1964    0.6496 H         1 UNK         0.0000 
     56 H56        -0.2009    3.1632   -0.4697 H         1 UNK         0.0000 
     57 H57         0.5405    2.7892    1.0837 H         1 UNK         0.0000 
     58 H58        -2.3292    2.9061    2.7535 H         1 UNK         0.0000 
     59 H59        -3.5232    1.9368    1.2277 H         1 UNK         0.0000 
     60 H60        -0.0942    0.3938   -0.9451 H         1 UNK         0.0000 
     61 H61         3.7691    0.0120    0.9301 H         1 UNK         0.0000 
     62 O62         4.4140    1.7657   -0.4726 O.3       1 UNK         0.0000 
     63 C63         4.7370    2.9765   -1.2280 C.3       1 UNK         0.0000 
     64 C64         4.9820    2.6297   -2.6934 C.3       1 UNK         0.0000 
     65 H65         5.3646    3.5150   -3.2100 H         1 UNK         0.0000 
     66 H66         5.7317    1.8365   -2.7707 H         1 UNK         0.0000 
     67 H67         4.0633    2.3054   -3.1828 H         1 UNK         0.0000 
     68 C68         3.6309    4.0133   -1.0513 C.3       1 UNK         0.0000 
     69 H69         2.7100    3.7012   -1.5450 H         1 UNK         0.0000 
     70 H70         3.4332    4.1727    0.0134 H         1 UNK         0.0000 
     71 H71         3.9599    4.9623   -1.4847 H         1 UNK         0.0000 
     72 C72         6.0258    3.4503   -0.5664 C.3       1 UNK         0.0000 
     73 H73         5.8563    3.6612    0.4931 H         1 UNK         0.0000 
     74 H74         6.8026    2.6856   -0.6535 H         1 UNK         0.0000 
     75 H75         6.3767    4.3634   -1.0543 H         1 UNK         0.0000 
@<TRIPOS>BOND
     1    1   37 1    
     2    1   30 1    
     3    1   36 1    
     4    1   38 1    
     5    2   59 1    
     6    2   20 1    
     7    2   29 am   BACKBONE|DICT|INTERRES
     8    3   27 2    
     9    4   41 1    
    10    4   30 1    
    11    4   39 1    
    12    4   40 1    
    13    5   33 1    
    14    5   28 am   BACKBONE|DICT|INTERRES
    15    5   60 1    
    16    6   28 2    
    17    7   32 1    
    18    7   61 1    
    19    7   31 am   BACKBONE|DICT|INTERRES
    20    8   29 2    
    21    9   23 ar   
    22    9   15 ar   
    23    9   42 1    
    24   10   31 2    
    25   11   43 1    
    26   11   16 ar   
    27   11   23 ar   
    28   12   25 1    
    29   12   26 1    
    30   13   44 1    
    31   13   17 ar   
    32   13   24 ar   
    33   14   18 ar   
    34   14   24 ar   
    35   14   45 1    
    36   15   25 ar   
    37   15   46 1    
    38   16   47 1    
    39   16   25 ar   
    40   17   48 1    
    41   17   26 ar   
    42   18   26 ar   
    43   18   49 1    
    44   19   50 1    
    45   19   23 1    
    46   19   32 1    
    47   19   51 1    
    48   20   53 1    
    49   20   27 1    
    50   20   52 1    
    51   21   30 1    
    52   21   22 1    
    53   21   54 1    
    54   21   55 1    
    55   22   33 1    
    56   22   57 1    
    57   22   56 1    
    58   24   27 1    
    59   28   32 1    
    60   29   33 1    
    61   30   58 1    
    62   31   62 1    
    63   32   34 1    
    64   33   35 1    
    65   62   63 1    
    66   63   72 1    
    67   63   64 1    
    68   63   68 1    
    69   64   66 1    
    70   64   65 1    
    71   64   67 1    
    72   68   70 1    
    73   68   69 1    
    74   68   71 1    
    75   72   74 1    
    76   72   73 1    
    77   72   75 1    
@<TRIPOS>SUBSTRUCTURE
     1 UNK         1 GROUP             0       ****    0 ROOT    
