@<TRIPOS>MOLECULE
Cpd1-500
75   77    1
SMALL
USER_CHARGES


@<TRIPOS>ATOM
      1 C           5.7033    1.6323   -2.7771 C.3       1 ****        0.0000 
      2 H           6.2421    2.3238   -3.4311 H         1 ****        0.0000 
      3 H           6.3601    0.7844   -2.5598 H         1 ****        0.0000 
      4 H           4.8145    1.2753   -3.2984 H         1 ****        0.0000 
      5 C           5.3361    2.3545   -1.4838 C.3       1 ****        0.0000 
      6 C           4.3498    3.4951   -1.7156 C.3       1 ****        0.0000 
      7 H           4.0494    3.9291   -0.7567 H         1 ****        0.0000 
      8 H           4.8359    4.2760   -2.3064 H         1 ****        0.0000 
      9 H           3.4609    3.1511   -2.2469 H         1 ****        0.0000 
     10 C           6.5878    2.8629   -0.7784 C.3       1 ****        0.0000 
     11 H           6.3236    3.3436    0.1676 H         1 ****        0.0000 
     12 H           7.2724    2.0350   -0.5734 H         1 ****        0.0000 
     13 H           7.0983    3.5920   -1.4121 H         1 ****        0.0000 
     14 O           4.7870    1.4017   -0.5190 O.3       1 ****        0.0000 
     15 C           3.6502    0.7386   -0.7769 C.3       1 ****        0.0000 
     16 O           2.9644    0.8541   -1.7800 O.3       1 ****        0.0000 
     17 N           3.3639   -0.1263    0.2386 N.3       1 ****        0.0000 
     18 H           3.8622   -0.0012    1.1107 H         1 ****        0.0000 
     19 C           2.0796   -0.8029    0.2606 C.3       1 ****        0.0000 
     20 C           0.9988    0.1536    0.7900 C.3       1 ****        0.0000 
     21 N           0.1031    0.5959   -0.1132 N.3       1 ****        0.0000 
     22 H           0.2132    0.3862   -1.1003 H         1 ****        0.0000 
     23 O           0.9733    0.4794    1.9768 O.3       1 ****        0.0000 
     24 H           1.8500   -1.0916   -0.7684 H         1 ****        0.0000 
     25 C           2.1505   -2.0606    1.1416 C.3       1 ****        0.0000 
     26 H           2.3822   -1.7571    2.1685 H         1 ****        0.0000 
     27 H           2.9693   -2.6857    0.7710 H         1 ****        0.0000 
     28 C           0.8356   -2.8004    1.0920 C.3       1 ****        0.0000 
     29 C          -0.1976   -2.4662    1.9756 C.3       1 ****        0.0000 
     30 C          -1.4783   -2.9761    1.7950 C.3       1 ****        0.0000 
     31 H          -2.2982   -2.6747    2.4398 H         1 ****        0.0000 
     32 H          -0.0056   -1.7580    2.7760 H         1 ****        0.0000 
     33 C           0.5810   -3.7366    0.0845 C.3       1 ****        0.0000 
     34 H           1.3807   -4.0262   -0.5926 H         1 ****        0.0000 
     35 C          -0.6982   -4.2634   -0.1027 C.3       1 ****        0.0000 
     36 H          -0.9144   -4.9482   -0.9155 H         1 ****        0.0000 
     37 C          -1.7255   -3.8326    0.7264 C.3       1 ****        0.0000 
     38 O          -3.0480   -4.1752    0.4358 O.3       1 ****        0.0000 
     39 C          -3.7345   -3.0694   -0.0367 C.3       1 ****        0.0000 
     40 C          -3.2052   -2.3268   -1.0936 C.3       1 ****        0.0000 
     41 C          -3.7928   -1.1207   -1.4375 C.3       1 ****        0.0000 
     42 H          -3.3403   -0.5212   -2.2198 H         1 ****        0.0000 
     43 H          -2.3042   -2.6633   -1.5951 H         1 ****        0.0000 
     44 C          -4.9150   -2.6823    0.5929 C.3       1 ****        0.0000 
     45 H          -5.3156   -3.2911    1.3970 H         1 ****        0.0000 
     46 C          -5.5106   -1.4764    0.2264 C.3       1 ****        0.0000 
     47 H          -6.3989   -1.1249    0.7422 H         1 ****        0.0000 
     48 C          -4.9241   -0.6652   -0.7506 C.3       1 ****        0.0000 
     49 C          -5.4383    0.7140   -0.9677 C.3       1 ****        0.0000 
     50 O          -6.5964    1.0235   -0.7600 O.3       1 ****        0.0000 
     51 C          -4.4193    1.7892   -1.3783 C.3       1 ****        0.0000 
     52 H          -4.0473    1.6013   -2.3896 H         1 ****        0.0000 
     53 H          -4.9336    2.7515   -1.3654 H         1 ****        0.0000 
     54 N          -3.2729    1.8046   -0.4867 N.3       1 ****        0.0000 
     55 H          -3.4386    2.0154    0.4885 H         1 ****        0.0000 
     56 C          -2.0206    1.4406   -0.8548 C.3       1 ****        0.0000 
     57 O          -1.7184    1.1241   -2.0016 O.3       1 ****        0.0000 
     58 C          -0.9812    1.4822    0.2655 C.3       1 ****        0.0000 
     59 H          -1.4255    1.0834    1.1856 H         1 ****        0.0000 
     60 C          -0.5099    2.9258    0.5324 C.3       1 ****        0.0000 
     61 H           0.1671    2.8798    1.3905 H         1 ****        0.0000 
     62 H          -1.3808    3.5205    0.8394 H         1 ****        0.0000 
     63 C           0.1761    3.5847   -0.6638 C.3       1 ****        0.0000 
     64 H           1.1292    3.0746   -0.8657 H         1 ****        0.0000 
     65 H          -0.4398    3.4562   -1.5637 H         1 ****        0.0000 
     66 C           0.4384    5.0834   -0.4616 C.3       1 ****        0.0000 
     67 C           1.3048    5.3557    0.7693 C.3       1 ****        0.0000 
     68 H           2.2473    4.7993    0.7031 H         1 ****        0.0000 
     69 H           1.5477    6.4206    0.8448 H         1 ****        0.0000 
     70 H           0.8071    5.0620    1.6981 H         1 ****        0.0000 
     71 H          -0.5349    5.5743   -0.3110 H         1 ****        0.0000 
     72 C           1.0821    5.6805   -1.7134 C.3       1 ****        0.0000 
     73 H           1.2125    6.7628   -1.6108 H         1 ****        0.0000 
     74 H           2.0705    5.2384   -1.8826 H         1 ****        0.0000 
     75 H           0.4740    5.4930   -2.6035 H         1 ****        0.0000 
@<TRIPOS>BOND
     1    1    2 1    
     2    1    3 1    
     3    1    4 1    
     4    1    5 1    
     5    5    6 1    
     6    5   10 1    
     7    5   14 1    
     8    6    7 1    
     9    6    8 1    
    10    6    9 1    
    11   10   11 1    
    12   10   12 1    
    13   10   13 1    
    14   14   15 1    
    15   15   16 1    
    16   15   17 1    
    17   17   18 1    
    18   17   19 1    
    19   19   20 1    
    20   19   24 1    
    21   19   25 1    
    22   20   21 1    
    23   20   23 1    
    24   21   22 1    
    25   21   58 1    
    26   25   26 1    
    27   25   27 1    
    28   25   28 1    
    29   28   29 1    
    30   28   33 1    
    31   29   30 1    
    32   29   32 1    
    33   30   31 1    
    34   30   37 1    
    35   33   34 1    
    36   33   35 1    
    37   35   36 1    
    38   35   37 1    
    39   37   38 1    
    40   38   39 1    
    41   39   40 1    
    42   39   44 1    
    43   40   41 1    
    44   40   43 1    
    45   41   42 1    
    46   41   48 1    
    47   44   45 1    
    48   44   46 1    
    49   46   47 1    
    50   46   48 1    
    51   48   49 1    
    52   49   50 1    
    53   49   51 1    
    54   51   52 1    
    55   51   53 1    
    56   51   54 1    
    57   54   55 1    
    58   54   56 1    
    59   56   57 1    
    60   56   58 1    
    61   58   59 1    
    62   58   60 1    
    63   60   61 1    
    64   60   62 1    
    65   60   63 1    
    66   63   64 1    
    67   63   65 1    
    68   63   66 1    
    69   66   67 1    
    70   66   71 1    
    71   66   72 1    
    72   67   68 1    
    73   67   69 1    
    74   67   70 1    
    75   72   73 1    
    76   72   74 1    
    77   72   75 1    
@<TRIPOS>SUBSTRUCTURE
     1 ****        1 GROUP             0       ****    0 ROOT    
@<TRIPOS>MOLECULE
Cpd1-1000
75   77    1
SMALL
USER_CHARGES


@<TRIPOS>ATOM
      1 C           5.4871    1.4818   -2.9165 C.3       1 ****        0.0000 
      2 H           6.0239    2.1203   -3.6246 H         1 ****        0.0000 
      3 H           6.1533    0.6680   -2.6165 H         1 ****        0.0000 
      4 H           4.6106    1.0659   -3.4144 H         1 ****        0.0000 
      5 C           5.0935    2.3132   -1.6997 C.3       1 ****        0.0000 
      6 C           4.0809    3.4021   -2.0383 C.3       1 ****        0.0000 
      7 H           3.1833    2.9860   -2.4968 H         1 ****        0.0000 
      8 H           3.8025    3.9461   -1.1306 H         1 ****        0.0000 
      9 H           4.5384    4.1118   -2.7341 H         1 ****        0.0000 
     10 C           6.3278    2.9185   -1.0401 C.3       1 ****        0.0000 
     11 H           6.8167    3.6058   -1.7359 H         1 ****        0.0000 
     12 H           6.0464    3.4726   -0.1405 H         1 ****        0.0000 
     13 H           7.0379    2.1336   -0.7641 H         1 ****        0.0000 
     14 O           4.5633    1.4417   -0.6481 O.3       1 ****        0.0000 
     15 C           3.4657    0.7029   -0.8591 C.3       1 ****        0.0000 
     16 O           2.7801    0.7085   -1.8708 O.3       1 ****        0.0000 
     17 N           3.2093   -0.0921    0.2197 N.3       1 ****        0.0000 
     18 H           3.7105    0.1054    1.0767 H         1 ****        0.0000 
     19 C           1.9605   -0.8325    0.2885 C.3       1 ****        0.0000 
     20 C           0.8520    0.1302    0.7528 C.3       1 ****        0.0000 
     21 N           0.1443    0.7043   -0.2456 N.3       1 ****        0.0000 
     22 H           0.4373    0.5517   -1.2057 H         1 ****        0.0000 
     23 O           0.6831    0.3810    1.9428 O.3       1 ****        0.0000 
     24 H           1.7422   -1.1808   -0.7257 H         1 ****        0.0000 
     25 C           2.0808   -2.0418    1.2237 C.3       1 ****        0.0000 
     26 H           2.2680   -1.6890    2.2428 H         1 ****        0.0000 
     27 H           2.9394   -2.6365    0.8963 H         1 ****        0.0000 
     28 C           0.8036   -2.8445    1.1629 C.3       1 ****        0.0000 
     29 C          -0.2446   -2.5729    2.0505 C.3       1 ****        0.0000 
     30 C          -1.5087   -3.1092    1.8375 C.3       1 ****        0.0000 
     31 H          -2.3459   -2.8456    2.4766 H         1 ****        0.0000 
     32 H          -0.0810   -1.8822    2.8708 H         1 ****        0.0000 
     33 C           0.5871   -3.7590    0.1274 C.3       1 ****        0.0000 
     34 H           1.4004   -4.0044   -0.5507 H         1 ****        0.0000 
     35 C          -0.6769   -4.3089   -0.0952 C.3       1 ****        0.0000 
     36 H          -0.8676   -4.9655   -0.9381 H         1 ****        0.0000 
     37 C          -1.7253   -3.9229    0.7295 C.3       1 ****        0.0000 
     38 O          -3.0402   -4.2476    0.3873 O.3       1 ****        0.0000 
     39 C          -3.7043   -3.1143   -0.0514 C.3       1 ****        0.0000 
     40 C          -3.1310   -2.3136   -1.0415 C.3       1 ****        0.0000 
     41 C          -3.7025   -1.0878   -1.3416 C.3       1 ****        0.0000 
     42 H          -3.2209   -0.4492   -2.0752 H         1 ****        0.0000 
     43 H          -2.2095   -2.6222   -1.5218 H         1 ****        0.0000 
     44 C          -4.9095   -2.7588    0.5514 C.3       1 ****        0.0000 
     45 H          -5.3425   -3.4089    1.3037 H         1 ****        0.0000 
     46 C          -5.4873   -1.5330    0.2291 C.3       1 ****        0.0000 
     47 H          -6.3974   -1.2081    0.7237 H         1 ****        0.0000 
     48 C          -4.8636   -0.6703   -0.6799 C.3       1 ****        0.0000 
     49 C          -5.3901    0.7078   -0.8626 C.3       1 ****        0.0000 
     50 O          -6.5485    0.9997   -0.6267 O.3       1 ****        0.0000 
     51 C          -4.4087    1.8024   -1.3068 C.3       1 ****        0.0000 
     52 H          -4.1000    1.6326   -2.3427 H         1 ****        0.0000 
     53 H          -4.9408    2.7541   -1.2504 H         1 ****        0.0000 
     54 N          -3.2048    1.8358   -0.4965 N.3       1 ****        0.0000 
     55 H          -3.2994    2.0428    0.4891 H         1 ****        0.0000 
     56 C          -1.9641    1.6097   -0.9902 C.3       1 ****        0.0000 
     57 O          -1.7454    1.3268   -2.1643 O.3       1 ****        0.0000 
     58 C          -0.8110    1.7712   -0.0011 C.3       1 ****        0.0000 
     59 H          -1.1571    1.6559    1.0304 H         1 ****        0.0000 
     60 C          -0.1896    3.1679   -0.1870 C.3       1 ****        0.0000 
     61 H          -0.9760    3.9082    0.0037 H         1 ****        0.0000 
     62 H           0.1135    3.2770   -1.2373 H         1 ****        0.0000 
     63 C           1.0099    3.4115    0.7271 C.3       1 ****        0.0000 
     64 H           0.7212    3.2407    1.7739 H         1 ****        0.0000 
     65 H           1.7875    2.6690    0.4965 H         1 ****        0.0000 
     66 C           1.6251    4.8103    0.5963 C.3       1 ****        0.0000 
     67 C           0.6514    5.9145    1.0161 C.3       1 ****        0.0000 
     68 H          -0.2275    5.9607    0.3678 H         1 ****        0.0000 
     69 H           0.3078    5.7481    2.0441 H         1 ****        0.0000 
     70 H           1.1392    6.8940    0.9794 H         1 ****        0.0000 
     71 H           1.8856    4.9683   -0.4608 H         1 ****        0.0000 
     72 C           2.9050    4.8916    1.4306 C.3       1 ****        0.0000 
     73 H           3.4081    5.8535    1.2940 H         1 ****        0.0000 
     74 H           2.6695    4.7816    2.4962 H         1 ****        0.0000 
     75 H           3.6086    4.0940    1.1638 H         1 ****        0.0000 
@<TRIPOS>BOND
     1    1    2 1    
     2    1    3 1    
     3    1    4 1    
     4    1    5 1    
     5    5    6 1    
     6    5   10 1    
     7    5   14 1    
     8    6    7 1    
     9    6    8 1    
    10    6    9 1    
    11   10   11 1    
    12   10   12 1    
    13   10   13 1    
    14   14   15 1    
    15   15   16 1    
    16   15   17 1    
    17   17   18 1    
    18   17   19 1    
    19   19   20 1    
    20   19   24 1    
    21   19   25 1    
    22   20   21 1    
    23   20   23 1    
    24   21   22 1    
    25   21   58 1    
    26   25   26 1    
    27   25   27 1    
    28   25   28 1    
    29   28   29 1    
    30   28   33 1    
    31   29   30 1    
    32   29   32 1    
    33   30   31 1    
    34   30   37 1    
    35   33   34 1    
    36   33   35 1    
    37   35   36 1    
    38   35   37 1    
    39   37   38 1    
    40   38   39 1    
    41   39   40 1    
    42   39   44 1    
    43   40   41 1    
    44   40   43 1    
    45   41   42 1    
    46   41   48 1    
    47   44   45 1    
    48   44   46 1    
    49   46   47 1    
    50   46   48 1    
    51   48   49 1    
    52   49   50 1    
    53   49   51 1    
    54   51   52 1    
    55   51   53 1    
    56   51   54 1    
    57   54   55 1    
    58   54   56 1    
    59   56   57 1    
    60   56   58 1    
    61   58   59 1    
    62   58   60 1    
    63   60   61 1    
    64   60   62 1    
    65   60   63 1    
    66   63   64 1    
    67   63   65 1    
    68   63   66 1    
    69   66   67 1    
    70   66   71 1    
    71   66   72 1    
    72   67   68 1    
    73   67   69 1    
    74   67   70 1    
    75   72   73 1    
    76   72   74 1    
    77   72   75 1    
@<TRIPOS>SUBSTRUCTURE
     1 ****        1 GROUP             0       ****    0 ROOT    
@<TRIPOS>MOLECULE
Cpd1-1500
75   77    1
SMALL
USER_CHARGES


@<TRIPOS>ATOM
      1 C           4.1680    3.3330   -2.3442 C.3       1 ****        0.0000 
      2 H           4.0716    3.9785   -1.4664 H         1 ****        0.0000 
      3 H           4.5914    3.9277   -3.1600 H         1 ****        0.0000 
      4 H           3.1792    2.9809   -2.6422 H         1 ****        0.0000 
      5 C           5.1048    2.1679   -2.0422 C.3       1 ****        0.0000 
      6 C           6.4371    2.6803   -1.5075 C.3       1 ****        0.0000 
      7 H           6.2810    3.2613   -0.5941 H         1 ****        0.0000 
      8 H           7.1077    1.8453   -1.2827 H         1 ****        0.0000 
      9 H           6.9128    3.3212   -2.2533 H         1 ****        0.0000 
     10 C           5.3248    1.2697   -3.2571 C.3       1 ****        0.0000 
     11 H           5.9214    0.3973   -2.9749 H         1 ****        0.0000 
     12 H           4.3775    0.9364   -3.6833 H         1 ****        0.0000 
     13 H           5.8754    1.8299   -4.0181 H         1 ****        0.0000 
     14 O           4.5928    1.3761   -0.9220 O.3       1 ****        0.0000 
     15 C           3.4483    0.6855   -1.0365 C.3       1 ****        0.0000 
     16 O           2.6720    0.7359   -1.9777 O.3       1 ****        0.0000 
     17 N           3.2618   -0.1185    0.0499 N.3       1 ****        0.0000 
     18 H           3.8468    0.0354    0.8613 H         1 ****        0.0000 
     19 C           2.0106   -0.8388    0.1972 C.3       1 ****        0.0000 
     20 C           0.9403    0.1035    0.7698 C.3       1 ****        0.0000 
     21 N           0.0127    0.5314   -0.1089 N.3       1 ****        0.0000 
     22 H           0.1332    0.3506   -1.1005 H         1 ****        0.0000 
     23 O           0.9544    0.4333    1.9548 O.3       1 ****        0.0000 
     24 H           1.7147   -1.1645   -0.8044 H         1 ****        0.0000 
     25 C           2.1701   -2.0729    1.0987 C.3       1 ****        0.0000 
     26 H           2.4302   -1.7450    2.1103 H         1 ****        0.0000 
     27 H           2.9888   -2.6815    0.7051 H         1 ****        0.0000 
     28 C           0.8687   -2.8407    1.0998 C.3       1 ****        0.0000 
     29 C          -0.1443   -2.5158    2.0101 C.3       1 ****        0.0000 
     30 C          -1.4324   -3.0118    1.8443 C.3       1 ****        0.0000 
     31 H          -2.2407   -2.7099    2.5041 H         1 ****        0.0000 
     32 H           0.0648   -1.8152    2.8138 H         1 ****        0.0000 
     33 C           0.5904   -3.7675    0.0903 C.3       1 ****        0.0000 
     34 H           1.3748   -4.0517   -0.6066 H         1 ****        0.0000 
     35 C          -0.6954   -4.2827   -0.0812 C.3       1 ****        0.0000 
     36 H          -0.9314   -4.9544   -0.9005 H         1 ****        0.0000 
     37 C          -1.7066   -3.8465    0.7645 C.3       1 ****        0.0000 
     38 O          -3.0377   -4.1542    0.4797 O.3       1 ****        0.0000 
     39 C          -3.7043   -3.0441   -0.0060 C.3       1 ****        0.0000 
     40 C          -3.1355   -2.2764   -1.0261 C.3       1 ****        0.0000 
     41 C          -3.7294   -1.0797   -1.3870 C.3       1 ****        0.0000 
     42 H          -3.2535   -0.4673   -2.1469 H         1 ****        0.0000 
     43 H          -2.2055   -2.5894   -1.4868 H         1 ****        0.0000 
     44 C          -4.9211   -2.6818    0.5678 C.3       1 ****        0.0000 
     45 H          -5.3510   -3.3073    1.3437 H         1 ****        0.0000 
     46 C          -5.5207   -1.4838    0.1844 C.3       1 ****        0.0000 
     47 H          -6.4411   -1.1557    0.6572 H         1 ****        0.0000 
     48 C          -4.9039   -0.6526   -0.7576 C.3       1 ****        0.0000 
     49 C          -5.4427    0.7130   -1.0002 C.3       1 ****        0.0000 
     50 O          -6.6160    0.9926   -0.8401 O.3       1 ****        0.0000 
     51 C          -4.4400    1.8150   -1.3825 C.3       1 ****        0.0000 
     52 H          -4.0580    1.6500   -2.3935 H         1 ****        0.0000 
     53 H          -4.9758    2.7658   -1.3599 H         1 ****        0.0000 
     54 N          -3.3004    1.8384   -0.4833 N.3       1 ****        0.0000 
     55 H          -3.4803    1.9811    0.5022 H         1 ****        0.0000 
     56 C          -2.0390    1.5167   -0.8596 C.3       1 ****        0.0000 
     57 O          -1.7209    1.2704   -2.0191 O.3       1 ****        0.0000 
     58 C          -1.0119    1.4872    0.2702 C.3       1 ****        0.0000 
     59 H          -1.4870    1.1185    1.1863 H         1 ****        0.0000 
     60 C          -0.4330    2.8894    0.5476 C.3       1 ****        0.0000 
     61 H           0.1999    2.7804    1.4336 H         1 ****        0.0000 
     62 H          -1.2586    3.5567    0.8216 H         1 ****        0.0000 
     63 C           0.3725    3.4636   -0.6201 C.3       1 ****        0.0000 
     64 H           0.9742    2.6641   -1.0742 H         1 ****        0.0000 
     65 H          -0.3108    3.8219   -1.4010 H         1 ****        0.0000 
     66 C           1.3236    4.6003   -0.2141 C.3       1 ****        0.0000 
     67 C           0.5766    5.7992    0.3735 C.3       1 ****        0.0000 
     68 H          -0.2015    6.1556   -0.3101 H         1 ****        0.0000 
     69 H           0.0986    5.5364    1.3239 H         1 ****        0.0000 
     70 H           1.2628    6.6294    0.5691 H         1 ****        0.0000 
     71 H           1.8194    4.9331   -1.1365 H         1 ****        0.0000 
     72 C           2.4121    4.1126    0.7493 C.3       1 ****        0.0000 
     73 H           3.2000    4.8665    0.8577 H         1 ****        0.0000 
     74 H           2.0082    3.9187    1.7484 H         1 ****        0.0000 
     75 H           2.8781    3.1867    0.3918 H         1 ****        0.0000 
@<TRIPOS>BOND
     1    1    2 1    
     2    1    3 1    
     3    1    4 1    
     4    1    5 1    
     5    5    6 1    
     6    5   10 1    
     7    5   14 1    
     8    6    7 1    
     9    6    8 1    
    10    6    9 1    
    11   10   11 1    
    12   10   12 1    
    13   10   13 1    
    14   14   15 1    
    15   15   16 1    
    16   15   17 1    
    17   17   18 1    
    18   17   19 1    
    19   19   20 1    
    20   19   24 1    
    21   19   25 1    
    22   20   21 1    
    23   20   23 1    
    24   21   22 1    
    25   21   58 1    
    26   25   26 1    
    27   25   27 1    
    28   25   28 1    
    29   28   29 1    
    30   28   33 1    
    31   29   30 1    
    32   29   32 1    
    33   30   31 1    
    34   30   37 1    
    35   33   34 1    
    36   33   35 1    
    37   35   36 1    
    38   35   37 1    
    39   37   38 1    
    40   38   39 1    
    41   39   40 1    
    42   39   44 1    
    43   40   41 1    
    44   40   43 1    
    45   41   42 1    
    46   41   48 1    
    47   44   45 1    
    48   44   46 1    
    49   46   47 1    
    50   46   48 1    
    51   48   49 1    
    52   49   50 1    
    53   49   51 1    
    54   51   52 1    
    55   51   53 1    
    56   51   54 1    
    57   54   55 1    
    58   54   56 1    
    59   56   57 1    
    60   56   58 1    
    61   58   59 1    
    62   58   60 1    
    63   60   61 1    
    64   60   62 1    
    65   60   63 1    
    66   63   64 1    
    67   63   65 1    
    68   63   66 1    
    69   66   67 1    
    70   66   71 1    
    71   66   72 1    
    72   67   68 1    
    73   67   69 1    
    74   67   70 1    
    75   72   73 1    
    76   72   74 1    
    77   72   75 1    
@<TRIPOS>SUBSTRUCTURE
     1 ****        1 GROUP             0       ****    0 ROOT    
@<TRIPOS>MOLECULE
Cpd1-2000
75   77    1
SMALL
USER_CHARGES


@<TRIPOS>ATOM
      1 C           3.6596    3.6662   -2.1621 C.3       1 ****        0.0000 
      2 H           3.9862    4.5152   -2.7712 H         1 ****        0.0000 
      3 H           2.6237    3.4343   -2.4150 H         1 ****        0.0000 
      4 H           3.7181    3.9565   -1.1081 H         1 ****        0.0000 
      5 C           4.5693    2.4718   -2.4268 C.3       1 ****        0.0000 
      6 C           6.0143    2.8032   -2.0734 C.3       1 ****        0.0000 
      7 H           6.3730    3.6122   -2.7144 H         1 ****        0.0000 
      8 H           6.0885    3.1229   -1.0304 H         1 ****        0.0000 
      9 H           6.6537    1.9294   -2.2208 H         1 ****        0.0000 
     10 C           4.4697    1.9674   -3.8630 C.3       1 ****        0.0000 
     11 H           4.8668    2.7326   -4.5359 H         1 ****        0.0000 
     12 H           5.0694    1.0593   -3.9845 H         1 ****        0.0000 
     13 H           3.4367    1.7549   -4.1390 H         1 ****        0.0000 
     14 O           4.2472    1.3946   -1.4878 O.3       1 ****        0.0000 
     15 C           3.0262    0.8500   -1.4565 C.3       1 ****        0.0000 
     16 O           2.1088    1.0919   -2.2342 O.3       1 ****        0.0000 
     17 N           2.9249   -0.0421   -0.4384 N.3       1 ****        0.0000 
     18 H           3.6859   -0.1019    0.2248 H         1 ****        0.0000 
     19 C           1.7004   -0.7891   -0.1993 C.3       1 ****        0.0000 
     20 C           0.7107    0.0999    0.5800 C.3       1 ****        0.0000 
     21 N          -0.0434    0.9345   -0.2003 N.3       1 ****        0.0000 
     22 H           0.3172    1.0658   -1.1446 H         1 ****        0.0000 
     23 O           0.6513    0.0683    1.8009 O.3       1 ****        0.0000 
     24 H           1.2695   -1.0286   -1.1776 H         1 ****        0.0000 
     25 C           2.0136   -2.0844    0.5621 C.3       1 ****        0.0000 
     26 H           2.4568   -1.8317    1.5295 H         1 ****        0.0000 
     27 H           2.7512   -2.6426   -0.0230 H         1 ****        0.0000 
     28 C           0.7517   -2.8888    0.7609 C.3       1 ****        0.0000 
     29 C           0.1210   -2.9534    2.0056 C.3       1 ****        0.0000 
     30 C          -1.1633   -3.4811    2.1315 C.3       1 ****        0.0000 
     31 H          -1.6870   -3.4678    3.0824 H         1 ****        0.0000 
     32 H           0.6059   -2.5155    2.8726 H         1 ****        0.0000 
     33 C           0.1211   -3.4731   -0.3430 C.3       1 ****        0.0000 
     34 H           0.6166   -3.4729   -1.3106 H         1 ****        0.0000 
     35 C          -1.1627   -3.9955   -0.2355 C.3       1 ****        0.0000 
     36 H          -1.6853   -4.3823   -1.1044 H         1 ****        0.0000 
     37 C          -1.8177   -3.9333    0.9927 C.3       1 ****        0.0000 
     38 O          -3.1934   -4.1867    1.0378 O.3       1 ****        0.0000 
     39 C          -3.8311   -3.1061    0.4371 C.3       1 ****        0.0000 
     40 C          -4.3768   -3.2584   -0.8331 C.3       1 ****        0.0000 
     41 C          -4.7672   -2.1212   -1.5348 C.3       1 ****        0.0000 
     42 H          -5.1366   -2.1993   -2.5522 H         1 ****        0.0000 
     43 H          -4.4179   -4.2441   -1.2841 H         1 ****        0.0000 
     44 C          -3.7985   -1.8619    1.0688 C.3       1 ****        0.0000 
     45 H          -3.4073   -1.7807    2.0771 H         1 ****        0.0000 
     46 C          -4.1696   -0.7315    0.3570 C.3       1 ****        0.0000 
     47 H          -4.0937    0.2447    0.8263 H         1 ****        0.0000 
     48 C          -4.6064   -0.8513   -0.9686 C.3       1 ****        0.0000 
     49 C          -4.8108    0.3391   -1.8359 C.3       1 ****        0.0000 
     50 O          -5.5430    0.3085   -2.8085 O.3       1 ****        0.0000 
     51 C          -4.0495    1.6280   -1.5272 C.3       1 ****        0.0000 
     52 H          -4.0658    2.2279   -2.4422 H         1 ****        0.0000 
     53 H          -4.5967    2.1806   -0.7551 H         1 ****        0.0000 
     54 N          -2.6955    1.4508   -1.0368 N.3       1 ****        0.0000 
     55 H          -2.0560    0.8354   -1.5237 H         1 ****        0.0000 
     56 C          -2.2483    2.1346    0.0434 C.3       1 ****        0.0000 
     57 O          -2.9764    2.8740    0.7016 O.3       1 ****        0.0000 
     58 C          -0.7711    2.0300    0.4234 C.3       1 ****        0.0000 
     59 H          -0.7637    1.8287    1.4975 H         1 ****        0.0000 
     60 C          -0.1033    3.3967    0.1727 C.3       1 ****        0.0000 
     61 H           0.9394    3.3249    0.5076 H         1 ****        0.0000 
     62 H          -0.6093    4.1218    0.8160 H         1 ****        0.0000 
     63 C          -0.1581    3.8518   -1.2867 C.3       1 ****        0.0000 
     64 H           0.3526    3.1145   -1.9233 H         1 ****        0.0000 
     65 H          -1.2050    3.8905   -1.6237 H         1 ****        0.0000 
     66 C           0.4721    5.2293   -1.5351 C.3       1 ****        0.0000 
     67 C           0.4905    5.5315   -3.0347 C.3       1 ****        0.0000 
     68 H           1.0127    4.7503   -3.5972 H         1 ****        0.0000 
     69 H          -0.5341    5.5951   -3.4223 H         1 ****        0.0000 
     70 H           0.9847    6.4861   -3.2391 H         1 ****        0.0000 
     71 H           1.5107    5.1985   -1.1762 H         1 ****        0.0000 
     72 C          -0.2621    6.3410   -0.7820 C.3       1 ****        0.0000 
     73 H          -0.1950    6.2232    0.3024 H         1 ****        0.0000 
     74 H           0.1582    7.3200   -1.0350 H         1 ****        0.0000 
     75 H          -1.3240    6.3497   -1.0555 H         1 ****        0.0000 
@<TRIPOS>BOND
     1    1    2 1    
     2    1    3 1    
     3    1    4 1    
     4    1    5 1    
     5    5    6 1    
     6    5   10 1    
     7    5   14 1    
     8    6    7 1    
     9    6    8 1    
    10    6    9 1    
    11   10   11 1    
    12   10   12 1    
    13   10   13 1    
    14   14   15 1    
    15   15   16 1    
    16   15   17 1    
    17   17   18 1    
    18   17   19 1    
    19   19   20 1    
    20   19   24 1    
    21   19   25 1    
    22   20   21 1    
    23   20   23 1    
    24   21   22 1    
    25   21   58 1    
    26   25   26 1    
    27   25   27 1    
    28   25   28 1    
    29   28   29 1    
    30   28   33 1    
    31   29   30 1    
    32   29   32 1    
    33   30   31 1    
    34   30   37 1    
    35   33   34 1    
    36   33   35 1    
    37   35   36 1    
    38   35   37 1    
    39   37   38 1    
    40   38   39 1    
    41   39   40 1    
    42   39   44 1    
    43   40   41 1    
    44   40   43 1    
    45   41   42 1    
    46   41   48 1    
    47   44   45 1    
    48   44   46 1    
    49   46   47 1    
    50   46   48 1    
    51   48   49 1    
    52   49   50 1    
    53   49   51 1    
    54   51   52 1    
    55   51   53 1    
    56   51   54 1    
    57   54   55 1    
    58   54   56 1    
    59   56   57 1    
    60   56   58 1    
    61   58   59 1    
    62   58   60 1    
    63   60   61 1    
    64   60   62 1    
    65   60   63 1    
    66   63   64 1    
    67   63   65 1    
    68   63   66 1    
    69   66   67 1    
    70   66   71 1    
    71   66   72 1    
    72   67   68 1    
    73   67   69 1    
    74   67   70 1    
    75   72   73 1    
    76   72   74 1    
    77   72   75 1    
@<TRIPOS>SUBSTRUCTURE
     1 ****        1 GROUP             0       ****    0 ROOT    
@<TRIPOS>MOLECULE
Cpd1-2500-MEC
75   77    1
SMALL
USER_CHARGES


@<TRIPOS>ATOM
      1 C           6.7290    0.1930   -2.1330 C.3       1 ****        0.0000 
      2 H           7.7260    0.1350   -2.5800 H         1 ****        0.0000 
      3 H           6.0670   -0.4970   -2.6570 H         1 ****        0.0000 
      4 H           6.3560    1.2150   -2.2580 H         1 ****        0.0000 
      5 C           6.8270   -0.1500   -0.6500 C.3       1 ****        0.0000 
      6 C           7.7750    0.8100    0.0600 C.3       1 ****        0.0000 
      7 H           7.4430    1.8430   -0.0740 H         1 ****        0.0000 
      8 H           7.8120    0.5880    1.1300 H         1 ****        0.0000 
      9 H           8.7810    0.7090   -0.3540 H         1 ****        0.0000 
     10 C           7.2550   -1.5960   -0.4150 C.3       1 ****        0.0000 
     11 H           7.2440   -1.8220    0.6550 H         1 ****        0.0000 
     12 H           6.6000   -2.2940   -0.9370 H         1 ****        0.0000 
     13 H           8.2770   -1.7300   -0.7820 H         1 ****        0.0000 
     14 O           5.5500    0.1110    0.0120 O.3       1 ****        0.0000 
     15 C           4.4390   -0.5520   -0.3460 C.3       1 ****        0.0000 
     16 O           4.3640   -1.4140   -1.2060 O.3       1 ****        0.0000 
     17 N           3.3740   -0.1090    0.3790 N.3       1 ****        0.0000 
     18 H           3.5540    0.4740    1.1860 H         1 ****        0.0000 
     19 C           2.1050   -0.8110    0.3180 C.3       1 ****        0.0000 
     20 C           1.0420    0.1940    0.7710 C.3       1 ****        0.0000 
     21 N           0.1020    0.5420   -0.1300 N.3       1 ****        0.0000 
     22 H           0.1450    0.2060   -1.0850 H         1 ****        0.0000 
     23 O           1.0850    0.6580    1.9090 O.3       1 ****        0.0000 
     24 H           1.9410   -1.1120   -0.7210 H         1 ****        0.0000 
     25 C           2.1020   -2.0630    1.2220 C.3       1 ****        0.0000 
     26 H           2.2920   -1.7350    2.2490 H         1 ****        0.0000 
     27 H           2.9330   -2.6970    0.8990 H         1 ****        0.0000 
     28 C           0.7900   -2.7960    1.1260 C.3       1 ****        0.0000 
     29 C          -0.2760   -2.4380    1.9600 C.3       1 ****        0.0000 
     30 C          -1.5460   -2.9630    1.7530 C.3       1 ****        0.0000 
     31 H          -2.3890   -2.6490    2.3610 H         1 ****        0.0000 
     32 H          -0.1140   -1.7090    2.7500 H         1 ****        0.0000 
     33 C           0.5740   -3.7570    0.1330 C.3       1 ****        0.0000 
     34 H           1.3990   -4.0600   -0.5060 H         1 ****        0.0000 
     35 C          -0.6960   -4.2950   -0.0840 C.3       1 ****        0.0000 
     36 H          -0.8830   -5.0010   -0.8870 H         1 ****        0.0000 
     37 C          -1.7520   -3.8530    0.7020 C.3       1 ****        0.0000 
     38 O          -3.0610   -4.2160    0.3790 O.3       1 ****        0.0000 
     39 C          -3.7560   -3.1120   -0.0810 C.3       1 ****        0.0000 
     40 C          -3.2140   -2.3390   -1.1110 C.3       1 ****        0.0000 
     41 C          -3.7930   -1.1220   -1.4220 C.3       1 ****        0.0000 
     42 H          -3.3280   -0.4950   -2.1760 H         1 ****        0.0000 
     43 H          -2.3040   -2.6610   -1.6060 H         1 ****        0.0000 
     44 C          -4.9480   -2.7480    0.5400 C.3       1 ****        0.0000 
     45 H          -5.3580   -3.3810    1.3210 H         1 ****        0.0000 
     46 C          -5.5380   -1.5320    0.2030 C.3       1 ****        0.0000 
     47 H          -6.4340   -1.1950    0.7160 H         1 ****        0.0000 
     48 C          -4.9340   -0.6890   -0.7360 C.3       1 ****        0.0000 
     49 C          -5.4350    0.7010   -0.9040 C.3       1 ****        0.0000 
     50 O          -6.5890    1.0160   -0.6870 O.3       1 ****        0.0000 
     51 C          -4.4070    1.7770   -1.2860 C.3       1 ****        0.0000 
     52 H          -4.0680    1.6310   -2.3160 H         1 ****        0.0000 
     53 H          -4.9060    2.7460   -1.2150 H         1 ****        0.0000 
     54 N          -3.2330    1.7410   -0.4310 N.3       1 ****        0.0000 
     55 H          -3.3530    1.9610    0.5490 H         1 ****        0.0000 
     56 C          -1.9840    1.4760   -0.8770 C.3       1 ****        0.0000 
     57 O          -1.7260    1.1910   -2.0440 O.3       1 ****        0.0000 
     58 C          -0.8670    1.5900    0.1570 C.3       1 ****        0.0000 
     59 H          -1.2530    1.4250    1.1690 H         1 ****        0.0000 
     60 C          -0.2090    2.9810    0.0790 C.3       1 ****        0.0000 
     61 H           0.1880    3.1120   -0.9360 H         1 ****        0.0000 
     62 H           0.6400    2.9550    0.7680 H         1 ****        0.0000 
     63 C          -1.1500    4.1330    0.4300 C.3       1 ****        0.0000 
     64 H          -1.9840    4.1570   -0.2820 H         1 ****        0.0000 
     65 H          -1.5890    3.9600    1.4260 H         1 ****        0.0000 
     66 C          -0.4750    5.5110    0.4260 C.3       1 ****        0.0000 
     67 C          -1.5240    6.6050    0.6380 C.3       1 ****        0.0000 
     68 H          -1.0690    7.5990    0.6020 H         1 ****        0.0000 
     69 H          -2.3070    6.5600   -0.1260 H         1 ****        0.0000 
     70 H          -2.0010    6.4900    1.6190 H         1 ****        0.0000 
     71 H          -0.0200    5.6580   -0.5640 H         1 ****        0.0000 
     72 C           0.6250    5.6210    1.4840 C.3       1 ****        0.0000 
     73 H           1.0470    6.6310    1.4970 H         1 ****        0.0000 
     74 H           0.2150    5.4160    2.4810 H         1 ****        0.0000 
     75 H           1.4460    4.9220    1.3060 H         1 ****        0.0000 
@<TRIPOS>BOND
     1    1    2 1    
     2    1    3 1    
     3    1    4 1    
     4    1    5 1    
     5    5    6 1    
     6    5   10 1    
     7    5   14 1    
     8    6    7 1    
     9    6    8 1    
    10    6    9 1    
    11   10   11 1    
    12   10   12 1    
    13   10   13 1    
    14   14   15 1    
    15   15   16 1    
    16   15   17 1    
    17   17   18 1    
    18   17   19 1    
    19   19   20 1    
    20   19   24 1    
    21   19   25 1    
    22   20   21 1    
    23   20   23 1    
    24   21   22 1    
    25   21   58 1    
    26   25   26 1    
    27   25   27 1    
    28   25   28 1    
    29   28   29 1    
    30   28   33 1    
    31   29   30 1    
    32   29   32 1    
    33   30   31 1    
    34   30   37 1    
    35   33   34 1    
    36   33   35 1    
    37   35   36 1    
    38   35   37 1    
    39   37   38 1    
    40   38   39 1    
    41   39   40 1    
    42   39   44 1    
    43   40   41 1    
    44   40   43 1    
    45   41   42 1    
    46   41   48 1    
    47   44   45 1    
    48   44   46 1    
    49   46   47 1    
    50   46   48 1    
    51   48   49 1    
    52   49   50 1    
    53   49   51 1    
    54   51   52 1    
    55   51   53 1    
    56   51   54 1    
    57   54   55 1    
    58   54   56 1    
    59   56   57 1    
    60   56   58 1    
    61   58   59 1    
    62   58   60 1    
    63   60   61 1    
    64   60   62 1    
    65   60   63 1    
    66   63   64 1    
    67   63   65 1    
    68   63   66 1    
    69   66   67 1    
    70   66   71 1    
    71   66   72 1    
    72   67   68 1    
    73   67   69 1    
    74   67   70 1    
    75   72   73 1    
    76   72   74 1    
    77   72   75 1    
@<TRIPOS>SUBSTRUCTURE
     1 ****        1 GROUP             0       ****    0 ROOT    
@<TRIPOS>MOLECULE
Cpd1-3000
75   77    1
SMALL
USER_CHARGES


@<TRIPOS>ATOM
      1 C           3.5384    3.4268   -2.9212 C.3       1 ****        0.0000 
      2 H           2.4878    3.2039   -3.1151 H         1 ****        0.0000 
      3 H           3.6309    3.8989   -1.9378 H         1 ****        0.0000 
      4 H           3.8941    4.1358   -3.6738 H         1 ****        0.0000 
      5 C           4.3953    2.1664   -2.9773 C.3       1 ****        0.0000 
      6 C           5.8658    2.5090   -2.7659 C.3       1 ****        0.0000 
      7 H           6.0043    3.0326   -1.8165 H         1 ****        0.0000 
      8 H           6.4720    1.5986   -2.7582 H         1 ****        0.0000 
      9 H           6.2136    3.1542   -3.5765 H         1 ****        0.0000 
     10 C           4.2022    1.3890   -4.2738 C.3       1 ****        0.0000 
     11 H           4.5524    1.9992   -5.1119 H         1 ****        0.0000 
     12 H           4.7915    0.4672   -4.2515 H         1 ****        0.0000 
     13 H           3.1522    1.1429   -4.4358 H         1 ****        0.0000 
     14 O           4.1005    1.3007   -1.8319 O.3       1 ****        0.0000 
     15 C           2.8811    0.7855   -1.6516 C.3       1 ****        0.0000 
     16 O           1.8956    1.0029   -2.3504 O.3       1 ****        0.0000 
     17 N           2.8582   -0.0380   -0.5732 N.3       1 ****        0.0000 
     18 H           3.6941   -0.1282   -0.0110 H         1 ****        0.0000 
     19 C           1.6643   -0.7951   -0.2359 C.3       1 ****        0.0000 
     20 C           0.7216    0.0797    0.6098 C.3       1 ****        0.0000 
     21 N          -0.1155    0.8865   -0.1129 N.3       1 ****        0.0000 
     22 H           0.1871    1.0678   -1.0697 H         1 ****        0.0000 
     23 O           0.7464    0.0551    1.8328 O.3       1 ****        0.0000 
     24 H           1.1627   -1.0393   -1.1782 H         1 ****        0.0000 
     25 C           2.0263   -2.0915    0.5018 C.3       1 ****        0.0000 
     26 H           2.5075   -1.8438    1.4527 H         1 ****        0.0000 
     27 H           2.7411   -2.6415   -0.1191 H         1 ****        0.0000 
     28 C           0.7715   -2.8992    0.7374 C.3       1 ****        0.0000 
     29 C           0.1521   -2.9354    1.9884 C.3       1 ****        0.0000 
     30 C          -1.1375   -3.4458    2.1338 C.3       1 ****        0.0000 
     31 H          -1.6525   -3.4071    3.0891 H         1 ****        0.0000 
     32 H           0.6492   -2.4847    2.8413 H         1 ****        0.0000 
     33 C           0.1268   -3.5016   -0.3492 C.3       1 ****        0.0000 
     34 H           0.6148   -3.5247   -1.3206 H         1 ****        0.0000 
     35 C          -1.1610   -4.0086   -0.2202 C.3       1 ****        0.0000 
     36 H          -1.6931   -4.4104   -1.0764 H         1 ****        0.0000 
     37 C          -1.8058   -3.9126    1.0098 C.3       1 ****        0.0000 
     38 O          -3.1834   -4.1538    1.0718 O.3       1 ****        0.0000 
     39 C          -3.8197   -3.0808    0.4566 C.3       1 ****        0.0000 
     40 C          -4.3627   -3.2479   -0.8140 C.3       1 ****        0.0000 
     41 C          -4.7552   -2.1202   -1.5290 C.3       1 ****        0.0000 
     42 H          -5.1217   -2.2118   -2.5467 H         1 ****        0.0000 
     43 H          -4.4009   -4.2393   -1.2542 H         1 ****        0.0000 
     44 C          -3.7948   -1.8294    1.0745 C.3       1 ****        0.0000 
     45 H          -3.4090   -1.7368    2.0838 H         1 ****        0.0000 
     46 C          -4.1717   -0.7082    0.3491 C.3       1 ****        0.0000 
     47 H          -4.1083    0.2733    0.8105 H         1 ****        0.0000 
     48 C          -4.6024   -0.8437   -0.9766 C.3       1 ****        0.0000 
     49 C          -4.8070    0.3336   -1.8646 C.3       1 ****        0.0000 
     50 O          -5.5611    0.2931   -2.8192 O.3       1 ****        0.0000 
     51 C          -4.0168    1.6182   -1.6108 C.3       1 ****        0.0000 
     52 H          -3.9811    2.1525   -2.5645 H         1 ****        0.0000 
     53 H          -4.5789    2.2393   -0.9035 H         1 ****        0.0000 
     54 N          -2.6900    1.4386   -1.0542 N.3       1 ****        0.0000 
     55 H          -2.0767    0.7268   -1.4290 H         1 ****        0.0000 
     56 C          -2.2855    2.1473    0.0275 C.3       1 ****        0.0000 
     57 O          -3.0066    2.9754    0.5780 O.3       1 ****        0.0000 
     58 C          -0.8871    1.8983    0.5953 C.3       1 ****        0.0000 
     59 H          -1.0580    1.4939    1.5968 H         1 ****        0.0000 
     60 C          -0.1344    3.2296    0.7354 C.3       1 ****        0.0000 
     61 H           0.7900    3.0245    1.2874 H         1 ****        0.0000 
     62 H          -0.7487    3.8930    1.3520 H         1 ****        0.0000 
     63 C           0.1705    3.9020   -0.6055 C.3       1 ****        0.0000 
     64 H           0.9537    3.3419   -1.1395 H         1 ****        0.0000 
     65 H          -0.7260    3.8736   -1.2418 H         1 ****        0.0000 
     66 C           0.6118    5.3648   -0.4644 C.3       1 ****        0.0000 
     67 C           1.8602    5.5032    0.4079 C.3       1 ****        0.0000 
     68 H           2.1997    6.5431    0.4396 H         1 ****        0.0000 
     69 H           1.6799    5.1809    1.4372 H         1 ****        0.0000 
     70 H           2.6792    4.8943    0.0037 H         1 ****        0.0000 
     71 H          -0.2096    5.9083    0.0238 H         1 ****        0.0000 
     72 C           0.8436    5.9889   -1.8414 C.3       1 ****        0.0000 
     73 H           1.6748    5.4907   -2.3542 H         1 ****        0.0000 
     74 H          -0.0447    5.8976   -2.4736 H         1 ****        0.0000 
     75 H           1.0922    7.0518   -1.7547 H         1 ****        0.0000 
@<TRIPOS>BOND
     1    1    2 1    
     2    1    3 1    
     3    1    4 1    
     4    1    5 1    
     5    5    6 1    
     6    5   10 1    
     7    5   14 1    
     8    6    7 1    
     9    6    8 1    
    10    6    9 1    
    11   10   11 1    
    12   10   12 1    
    13   10   13 1    
    14   14   15 1    
    15   15   16 1    
    16   15   17 1    
    17   17   18 1    
    18   17   19 1    
    19   19   20 1    
    20   19   24 1    
    21   19   25 1    
    22   20   21 1    
    23   20   23 1    
    24   21   22 1    
    25   21   58 1    
    26   25   26 1    
    27   25   27 1    
    28   25   28 1    
    29   28   29 1    
    30   28   33 1    
    31   29   30 1    
    32   29   32 1    
    33   30   31 1    
    34   30   37 1    
    35   33   34 1    
    36   33   35 1    
    37   35   36 1    
    38   35   37 1    
    39   37   38 1    
    40   38   39 1    
    41   39   40 1    
    42   39   44 1    
    43   40   41 1    
    44   40   43 1    
    45   41   42 1    
    46   41   48 1    
    47   44   45 1    
    48   44   46 1    
    49   46   47 1    
    50   46   48 1    
    51   48   49 1    
    52   49   50 1    
    53   49   51 1    
    54   51   52 1    
    55   51   53 1    
    56   51   54 1    
    57   54   55 1    
    58   54   56 1    
    59   56   57 1    
    60   56   58 1    
    61   58   59 1    
    62   58   60 1    
    63   60   61 1    
    64   60   62 1    
    65   60   63 1    
    66   63   64 1    
    67   63   65 1    
    68   63   66 1    
    69   66   67 1    
    70   66   71 1    
    71   66   72 1    
    72   67   68 1    
    73   67   69 1    
    74   67   70 1    
    75   72   73 1    
    76   72   74 1    
    77   72   75 1    
@<TRIPOS>SUBSTRUCTURE
     1 ****        1 GROUP             0       ****    0 ROOT    
@<TRIPOS>MOLECULE
Cpd1-3500
75   77    1
SMALL
USER_CHARGES


@<TRIPOS>ATOM
      1 C           3.7327    3.7049   -1.3978 C.3       1 ****        0.0000 
      2 H           2.8763    3.3055   -1.9435 H         1 ****        0.0000 
      3 H           3.4213    3.9692   -0.3812 H         1 ****        0.0000 
      4 H           4.0765    4.6154   -1.8981 H         1 ****        0.0000 
      5 C           4.8789    2.6978   -1.3493 C.3       1 ****        0.0000 
      6 C           6.0888    3.2952   -0.6396 C.3       1 ****        0.0000 
      7 H           6.8882    2.5536   -0.5604 H         1 ****        0.0000 
      8 H           6.4612    4.1530   -1.2043 H         1 ****        0.0000 
      9 H           5.8164    3.6276    0.3659 H         1 ****        0.0000 
     10 C           5.2654    2.1877   -2.7344 C.3       1 ****        0.0000 
     11 H           5.6644    3.0202   -3.3219 H         1 ****        0.0000 
     12 H           6.0439    1.4239   -2.6498 H         1 ****        0.0000 
     13 H           4.4050    1.7692   -3.2570 H         1 ****        0.0000 
     14 O           4.5198    1.5746   -0.4818 O.3       1 ****        0.0000 
     15 C           3.4475    0.8186   -0.7507 C.3       1 ****        0.0000 
     16 O           2.7283    0.9148   -1.7328 O.3       1 ****        0.0000 
     17 N           3.2630   -0.1181    0.2288 N.3       1 ****        0.0000 
     18 H           3.7472    0.0431    1.1042 H         1 ****        0.0000 
     19 C           2.0023   -0.8428    0.2744 C.3       1 ****        0.0000 
     20 C           0.9057    0.1224    0.7569 C.3       1 ****        0.0000 
     21 N           0.0572    0.5685   -0.1956 N.3       1 ****        0.0000 
     22 H           0.2904    0.4005   -1.1688 H         1 ****        0.0000 
     23 O           0.8529    0.4788    1.9326 O.3       1 ****        0.0000 
     24 H           1.7823   -1.1768   -0.7433 H         1 ****        0.0000 
     25 C           2.1112   -2.0629    1.1990 C.3       1 ****        0.0000 
     26 H           2.3162   -1.7172    2.2182 H         1 ****        0.0000 
     27 H           2.9550   -2.6705    0.8603 H         1 ****        0.0000 
     28 C           0.8192   -2.8408    1.1486 C.3       1 ****        0.0000 
     29 C          -0.2295   -2.5227    2.0199 C.3       1 ****        0.0000 
     30 C          -1.5013   -3.0452    1.8172 C.3       1 ****        0.0000 
     31 H          -2.3360   -2.7491    2.4463 H         1 ****        0.0000 
     32 H          -0.0577   -1.8108    2.8230 H         1 ****        0.0000 
     33 C           0.5914   -3.7796    0.1383 C.3       1 ****        0.0000 
     34 H           1.4043   -4.0581   -0.5285 H         1 ****        0.0000 
     35 C          -0.6795   -4.3172   -0.0723 C.3       1 ****        0.0000 
     36 H          -0.8779   -4.9965   -0.8960 H         1 ****        0.0000 
     37 C          -1.7249   -3.8931    0.7372 C.3       1 ****        0.0000 
     38 O          -3.0414   -4.2198    0.4067 O.3       1 ****        0.0000 
     39 C          -3.7115   -3.0982   -0.0487 C.3       1 ****        0.0000 
     40 C          -3.1321   -2.2969   -1.0366 C.3       1 ****        0.0000 
     41 C          -3.7133   -1.0803   -1.3520 C.3       1 ****        0.0000 
     42 H          -3.2281   -0.4402   -2.0834 H         1 ****        0.0000 
     43 H          -2.2005   -2.5980   -1.5022 H         1 ****        0.0000 
     44 C          -4.9299   -2.7535    0.5314 C.3       1 ****        0.0000 
     45 H          -5.3666   -3.4054    1.2812 H         1 ****        0.0000 
     46 C          -5.5172   -1.5368    0.1938 C.3       1 ****        0.0000 
     47 H          -6.4374   -1.2198    0.6741 H         1 ****        0.0000 
     48 C          -4.8877   -0.6725   -0.7097 C.3       1 ****        0.0000 
     49 C          -5.4169    0.7048   -0.8972 C.3       1 ****        0.0000 
     50 O          -6.5811    0.9922   -0.6922 O.3       1 ****        0.0000 
     51 C          -4.4214    1.8042   -1.2975 C.3       1 ****        0.0000 
     52 H          -4.0978    1.6592   -2.3324 H         1 ****        0.0000 
     53 H          -4.9477    2.7590   -1.2261 H         1 ****        0.0000 
     54 N          -3.2308    1.8070   -0.4664 N.3       1 ****        0.0000 
     55 H          -3.3415    1.9773    0.5245 H         1 ****        0.0000 
     56 C          -1.9841    1.5944   -0.9467 C.3       1 ****        0.0000 
     57 O          -1.7457    1.3657   -2.1294 O.3       1 ****        0.0000 
     58 C          -0.8465    1.6765    0.0684 C.3       1 ****        0.0000 
     59 H          -1.2206    1.5615    1.0898 H         1 ****        0.0000 
     60 C          -0.1115    3.0213   -0.0708 C.3       1 ****        0.0000 
     61 H           0.2811    3.0780   -1.0930 H         1 ****        0.0000 
     62 H           0.7478    2.9896    0.6107 H         1 ****        0.0000 
     63 C          -0.9890    4.2305    0.2492 C.3       1 ****        0.0000 
     64 H          -1.7814    4.3309   -0.5065 H         1 ****        0.0000 
     65 H          -1.4918    4.0620    1.2128 H         1 ****        0.0000 
     66 C          -0.2166    5.5538    0.3259 C.3       1 ****        0.0000 
     67 C           0.4542    5.8980   -1.0061 C.3       1 ****        0.0000 
     68 H           1.1992    5.1534   -1.2978 H         1 ****        0.0000 
     69 H          -0.2961    5.9578   -1.8049 H         1 ****        0.0000 
     70 H           0.9582    6.8676   -0.9456 H         1 ****        0.0000 
     71 H           0.5665    5.4395    1.0888 H         1 ****        0.0000 
     72 C          -1.1501    6.6844    0.7608 C.3       1 ****        0.0000 
     73 H          -1.9432    6.8312    0.0186 H         1 ****        0.0000 
     74 H          -1.6250    6.4614    1.7219 H         1 ****        0.0000 
     75 H          -0.6055    7.6286    0.8610 H         1 ****        0.0000 
@<TRIPOS>BOND
     1    1    2 1    
     2    1    3 1    
     3    1    4 1    
     4    1    5 1    
     5    5    6 1    
     6    5   10 1    
     7    5   14 1    
     8    6    7 1    
     9    6    8 1    
    10    6    9 1    
    11   10   11 1    
    12   10   12 1    
    13   10   13 1    
    14   14   15 1    
    15   15   16 1    
    16   15   17 1    
    17   17   18 1    
    18   17   19 1    
    19   19   20 1    
    20   19   24 1    
    21   19   25 1    
    22   20   21 1    
    23   20   23 1    
    24   21   22 1    
    25   21   58 1    
    26   25   26 1    
    27   25   27 1    
    28   25   28 1    
    29   28   29 1    
    30   28   33 1    
    31   29   30 1    
    32   29   32 1    
    33   30   31 1    
    34   30   37 1    
    35   33   34 1    
    36   33   35 1    
    37   35   36 1    
    38   35   37 1    
    39   37   38 1    
    40   38   39 1    
    41   39   40 1    
    42   39   44 1    
    43   40   41 1    
    44   40   43 1    
    45   41   42 1    
    46   41   48 1    
    47   44   45 1    
    48   44   46 1    
    49   46   47 1    
    50   46   48 1    
    51   48   49 1    
    52   49   50 1    
    53   49   51 1    
    54   51   52 1    
    55   51   53 1    
    56   51   54 1    
    57   54   55 1    
    58   54   56 1    
    59   56   57 1    
    60   56   58 1    
    61   58   59 1    
    62   58   60 1    
    63   60   61 1    
    64   60   62 1    
    65   60   63 1    
    66   63   64 1    
    67   63   65 1    
    68   63   66 1    
    69   66   67 1    
    70   66   71 1    
    71   66   72 1    
    72   67   68 1    
    73   67   69 1    
    74   67   70 1    
    75   72   73 1    
    76   72   74 1    
    77   72   75 1    
@<TRIPOS>SUBSTRUCTURE
     1 ****        1 GROUP             0       ****    0 ROOT    
@<TRIPOS>MOLECULE
Cpd1-4000
75   77    1
SMALL
USER_CHARGES


@<TRIPOS>ATOM
      1 C           3.1598    3.2138   -3.3342 C.3       1 ****        0.0000 
      2 H           3.5578    3.8866   -4.1000 H         1 ****        0.0000 
      3 H           2.2500    2.7471   -3.7104 H         1 ****        0.0000 
      4 H           2.9155    3.8106   -2.4514 H         1 ****        0.0000 
      5 C           4.2288    2.1769   -2.9955 C.3       1 ****        0.0000 
      6 C           5.5409    2.8607   -2.6309 C.3       1 ****        0.0000 
      7 H           5.3901    3.5633   -1.8064 H         1 ****        0.0000 
      8 H           6.2872    2.1209   -2.3329 H         1 ****        0.0000 
      9 H           5.9198    3.4132   -3.4949 H         1 ****        0.0000 
     10 C           4.4319    1.1716   -4.1236 C.3       1 ****        0.0000 
     11 H           4.7764    1.6996   -5.0178 H         1 ****        0.0000 
     12 H           5.1913    0.4354   -3.8440 H         1 ****        0.0000 
     13 H           3.4987    0.6568   -4.3633 H         1 ****        0.0000 
     14 O           3.8965    1.4510   -1.7634 O.3       1 ****        0.0000 
     15 C           2.7719    0.7354   -1.6750 C.3       1 ****        0.0000 
     16 O           1.8499    0.7466   -2.4832 O.3       1 ****        0.0000 
     17 N           2.7634   -0.0292   -0.5496 N.3       1 ****        0.0000 
     18 H           3.5110    0.0948    0.1208 H         1 ****        0.0000 
     19 C           1.5964   -0.8255   -0.2000 C.3       1 ****        0.0000 
     20 C           0.6117    0.0596    0.5888 C.3       1 ****        0.0000 
     21 N          -0.1149    0.9205   -0.1899 N.3       1 ****        0.0000 
     22 H           0.2129    1.0194   -1.1505 H         1 ****        0.0000 
     23 O           0.5331    0.0180    1.8072 O.3       1 ****        0.0000 
     24 H           1.1275   -1.1132   -1.1447 H         1 ****        0.0000 
     25 C           1.9856   -2.0858    0.5818 C.3       1 ****        0.0000 
     26 H           2.4263   -1.8021    1.5424 H         1 ****        0.0000 
     27 H           2.7409   -2.6206   -0.0036 H         1 ****        0.0000 
     28 C           0.7531   -2.9331    0.7942 C.3       1 ****        0.0000 
     29 C           0.1207   -3.0006    2.0375 C.3       1 ****        0.0000 
     30 C          -1.1617   -3.5356    2.1605 C.3       1 ****        0.0000 
     31 H          -1.6899   -3.5172    3.1079 H         1 ****        0.0000 
     32 H           0.5977   -2.5506    2.9027 H         1 ****        0.0000 
     33 C           0.1351   -3.5384   -0.3059 C.3       1 ****        0.0000 
     34 H           0.6348   -3.5404   -1.2721 H         1 ****        0.0000 
     35 C          -1.1459   -4.0672   -0.2012 C.3       1 ****        0.0000 
     36 H          -1.6612   -4.4636   -1.0707 H         1 ****        0.0000 
     37 C          -1.8092   -3.9938    1.0204 C.3       1 ****        0.0000 
     38 O          -3.1882   -4.2364    1.0540 O.3       1 ****        0.0000 
     39 C          -3.8127   -3.1469    0.4582 C.3       1 ****        0.0000 
     40 C          -4.3526   -3.2833   -0.8186 C.3       1 ****        0.0000 
     41 C          -4.7410   -2.1381   -1.5087 C.3       1 ****        0.0000 
     42 H          -5.1079   -2.2065   -2.5276 H         1 ****        0.0000 
     43 H          -4.3930   -4.2634   -1.2802 H         1 ****        0.0000 
     44 C          -3.7801   -1.9088    1.1011 C.3       1 ****        0.0000 
     45 H          -3.3943   -1.8374    2.1116 H         1 ****        0.0000 
     46 C          -4.1496   -0.7699    0.3991 C.3       1 ****        0.0000 
     47 H          -4.0717    0.2005    0.8801 H         1 ****        0.0000 
     48 C          -4.5851   -0.8742   -0.9285 C.3       1 ****        0.0000 
     49 C          -4.8077    0.3266   -1.7812 C.3       1 ****        0.0000 
     50 O          -5.5421    0.2930   -2.7508 O.3       1 ****        0.0000 
     51 C          -4.0776    1.6265   -1.4534 C.3       1 ****        0.0000 
     52 H          -4.1112    2.2452   -2.3547 H         1 ****        0.0000 
     53 H          -4.6389    2.1573   -0.6742 H         1 ****        0.0000 
     54 N          -2.7174    1.4477   -0.9757 N.3       1 ****        0.0000 
     55 H          -2.1917    0.6157   -1.2077 H         1 ****        0.0000 
     56 C          -2.1673    2.3573   -0.1394 C.3       1 ****        0.0000 
     57 O          -2.7665    3.3710    0.2100 O.3       1 ****        0.0000 
     58 C          -0.7712    2.0695    0.4206 C.3       1 ****        0.0000 
     59 H          -0.9390    1.7983    1.4699 H         1 ****        0.0000 
     60 C           0.1089    3.3275    0.3762 C.3       1 ****        0.0000 
     61 H          -0.4859    4.1612    0.7627 H         1 ****        0.0000 
     62 H           0.3464    3.5543   -0.6717 H         1 ****        0.0000 
     63 C           1.3841    3.1637    1.2066 C.3       1 ****        0.0000 
     64 H           1.1151    2.7341    2.1802 H         1 ****        0.0000 
     65 H           2.0578    2.4377    0.7255 H         1 ****        0.0000 
     66 C           2.1584    4.4664    1.4400 C.3       1 ****        0.0000 
     67 C           3.3065    4.2253    2.4207 C.3       1 ****        0.0000 
     68 H           2.9404    3.8309    3.3742 H         1 ****        0.0000 
     69 H           4.0146    3.4985    2.0043 H         1 ****        0.0000 
     70 H           3.8556    5.1499    2.6220 H         1 ****        0.0000 
     71 H           1.4656    5.1916    1.8906 H         1 ****        0.0000 
     72 C           2.6955    5.0558    0.1368 C.3       1 ****        0.0000 
     73 H           3.3881    4.3443   -0.3322 H         1 ****        0.0000 
     74 H           1.8983    5.2790   -0.5790 H         1 ****        0.0000 
     75 H           3.2457    5.9843    0.3232 H         1 ****        0.0000 
@<TRIPOS>BOND
     1    1    2 1    
     2    1    3 1    
     3    1    4 1    
     4    1    5 1    
     5    5    6 1    
     6    5   10 1    
     7    5   14 1    
     8    6    7 1    
     9    6    8 1    
    10    6    9 1    
    11   10   11 1    
    12   10   12 1    
    13   10   13 1    
    14   14   15 1    
    15   15   16 1    
    16   15   17 1    
    17   17   18 1    
    18   17   19 1    
    19   19   20 1    
    20   19   24 1    
    21   19   25 1    
    22   20   21 1    
    23   20   23 1    
    24   21   22 1    
    25   21   58 1    
    26   25   26 1    
    27   25   27 1    
    28   25   28 1    
    29   28   29 1    
    30   28   33 1    
    31   29   30 1    
    32   29   32 1    
    33   30   31 1    
    34   30   37 1    
    35   33   34 1    
    36   33   35 1    
    37   35   36 1    
    38   35   37 1    
    39   37   38 1    
    40   38   39 1    
    41   39   40 1    
    42   39   44 1    
    43   40   41 1    
    44   40   43 1    
    45   41   42 1    
    46   41   48 1    
    47   44   45 1    
    48   44   46 1    
    49   46   47 1    
    50   46   48 1    
    51   48   49 1    
    52   49   50 1    
    53   49   51 1    
    54   51   52 1    
    55   51   53 1    
    56   51   54 1    
    57   54   55 1    
    58   54   56 1    
    59   56   57 1    
    60   56   58 1    
    61   58   59 1    
    62   58   60 1    
    63   60   61 1    
    64   60   62 1    
    65   60   63 1    
    66   63   64 1    
    67   63   65 1    
    68   63   66 1    
    69   66   67 1    
    70   66   71 1    
    71   66   72 1    
    72   67   68 1    
    73   67   69 1    
    74   67   70 1    
    75   72   73 1    
    76   72   74 1    
    77   72   75 1    
@<TRIPOS>SUBSTRUCTURE
     1 ****        1 GROUP             0       ****    0 ROOT    
@<TRIPOS>MOLECULE
Cpd1-4500
75   77    1
SMALL
USER_CHARGES


@<TRIPOS>ATOM
      1 C           3.4837    3.5760   -2.6550 C.3       1 ****        0.0000 
      2 H           2.4561    3.2802   -2.8663 H         1 ****        0.0000 
      3 H           3.5268    4.0651   -1.6777 H         1 ****        0.0000 
      4 H           3.8066    4.2980   -3.4107 H         1 ****        0.0000 
      5 C           4.4281    2.3784   -2.6783 C.3       1 ****        0.0000 
      6 C           5.8491    2.8103   -2.3384 C.3       1 ****        0.0000 
      7 H           5.8762    3.2975   -1.3600 H         1 ****        0.0000 
      8 H           6.5182    1.9449   -2.3212 H         1 ****        0.0000 
      9 H           6.2084    3.5171   -3.0915 H         1 ****        0.0000 
     10 C           4.3951    1.6333   -4.0086 C.3       1 ****        0.0000 
     11 H           3.3785    1.3465   -4.2811 H         1 ****        0.0000 
     12 H           4.7970    2.2849   -4.7904 H         1 ****        0.0000 
     13 H           5.0217    0.7376   -3.9544 H         1 ****        0.0000 
     14 O           4.1024    1.4592   -1.5830 O.3       1 ****        0.0000 
     15 C           2.9237    0.8304   -1.5391 C.3       1 ****        0.0000 
     16 O           1.9962    0.9849   -2.3272 O.3       1 ****        0.0000 
     17 N           2.8724   -0.0289   -0.4874 N.3       1 ****        0.0000 
     18 H           3.6268   -0.0081    0.1854 H         1 ****        0.0000 
     19 C           1.6719   -0.8024   -0.2065 C.3       1 ****        0.0000 
     20 C           0.6846    0.0754    0.5864 C.3       1 ****        0.0000 
     21 N          -0.0908    0.9002   -0.1861 N.3       1 ****        0.0000 
     22 H           0.2548    1.0332   -1.1368 H         1 ****        0.0000 
     23 O           0.6446    0.0516    1.8077 O.3       1 ****        0.0000 
     24 H           1.2238   -1.0550   -1.1726 H         1 ****        0.0000 
     25 C           2.0188   -2.0883    0.5541 C.3       1 ****        0.0000 
     26 H           2.4699   -1.8288    1.5162 H         1 ****        0.0000 
     27 H           2.7575   -2.6369   -0.0393 H         1 ****        0.0000 
     28 C           0.7659   -2.9043    0.7641 C.3       1 ****        0.0000 
     29 C           0.1352   -2.9570    2.0086 C.3       1 ****        0.0000 
     30 C          -1.1524   -3.4787    2.1376 C.3       1 ****        0.0000 
     31 H          -1.6770   -3.4529    3.0870 H         1 ****        0.0000 
     32 H           0.6195   -2.5112    2.8715 H         1 ****        0.0000 
     33 C           0.1346   -3.4990   -0.3348 C.3       1 ****        0.0000 
     34 H           0.6315   -3.5092   -1.3026 H         1 ****        0.0000 
     35 C          -1.1508   -4.0153   -0.2237 C.3       1 ****        0.0000 
     36 H          -1.6743   -4.4080   -1.0892 H         1 ****        0.0000 
     37 C          -1.8071   -3.9362    1.0016 C.3       1 ****        0.0000 
     38 O          -3.1851   -4.1803    1.0465 O.3       1 ****        0.0000 
     39 C          -3.8178   -3.0996    0.4420 C.3       1 ****        0.0000 
     40 C          -4.3632   -3.2532   -0.8287 C.3       1 ****        0.0000 
     41 C          -4.7560   -2.1183   -1.5306 C.3       1 ****        0.0000 
     42 H          -5.1275   -2.1990   -2.5474 H         1 ****        0.0000 
     43 H          -4.4055   -4.2406   -1.2771 H         1 ****        0.0000 
     44 C          -3.7843   -1.8532    1.0708 C.3       1 ****        0.0000 
     45 H          -3.3942   -1.7704    2.0801 H         1 ****        0.0000 
     46 C          -4.1569   -0.7241    0.3572 C.3       1 ****        0.0000 
     47 H          -4.0824    0.2536    0.8250 H         1 ****        0.0000 
     48 C          -4.5975   -0.8472   -0.9673 C.3       1 ****        0.0000 
     49 C          -4.8139    0.3424   -1.8356 C.3       1 ****        0.0000 
     50 O          -5.5541    0.3045   -2.8016 O.3       1 ****        0.0000 
     51 C          -4.0591    1.6365   -1.5369 C.3       1 ****        0.0000 
     52 H          -4.0818    2.2306   -2.4550 H         1 ****        0.0000 
     53 H          -4.6078    2.1922   -0.7677 H         1 ****        0.0000 
     54 N          -2.7035    1.4676   -1.0479 N.3       1 ****        0.0000 
     55 H          -2.0843    0.7995   -1.4892 H         1 ****        0.0000 
     56 C          -2.2545    2.1705    0.0193 C.3       1 ****        0.0000 
     57 O          -2.9694    2.9508    0.6420 O.3       1 ****        0.0000 
     58 C          -0.7943    2.0098    0.4418 C.3       1 ****        0.0000 
     59 H          -0.8266    1.7868    1.5114 H         1 ****        0.0000 
     60 C          -0.0590    3.3462    0.2391 C.3       1 ****        0.0000 
     61 H          -0.6625    4.1199    0.7221 H         1 ****        0.0000 
     62 H          -0.0234    3.5825   -0.8353 H         1 ****        0.0000 
     63 C           1.3572    3.3215    0.8113 C.3       1 ****        0.0000 
     64 H           1.3220    2.9839    1.8576 H         1 ****        0.0000 
     65 H           1.9546    2.5766    0.2660 H         1 ****        0.0000 
     66 C           2.0893    4.6663    0.7469 C.3       1 ****        0.0000 
     67 C           1.4311    5.7285    1.6304 C.3       1 ****        0.0000 
     68 H           2.0035    6.6617    1.6038 H         1 ****        0.0000 
     69 H           0.4096    5.9576    1.3141 H         1 ****        0.0000 
     70 H           1.3950    5.3860    2.6712 H         1 ****        0.0000 
     71 H           2.0564    5.0212   -0.2943 H         1 ****        0.0000 
     72 C           3.5534    4.4760    1.1493 C.3       1 ****        0.0000 
     73 H           4.0389    3.7035    0.5420 H         1 ****        0.0000 
     74 H           4.1206    5.4059    1.0407 H         1 ****        0.0000 
     75 H           3.6189    4.1634    2.1991 H         1 ****        0.0000 
@<TRIPOS>BOND
     1    1    2 1    
     2    1    3 1    
     3    1    4 1    
     4    1    5 1    
     5    5    6 1    
     6    5   10 1    
     7    5   14 1    
     8    6    7 1    
     9    6    8 1    
    10    6    9 1    
    11   10   11 1    
    12   10   12 1    
    13   10   13 1    
    14   14   15 1    
    15   15   16 1    
    16   15   17 1    
    17   17   18 1    
    18   17   19 1    
    19   19   20 1    
    20   19   24 1    
    21   19   25 1    
    22   20   21 1    
    23   20   23 1    
    24   21   22 1    
    25   21   58 1    
    26   25   26 1    
    27   25   27 1    
    28   25   28 1    
    29   28   29 1    
    30   28   33 1    
    31   29   30 1    
    32   29   32 1    
    33   30   31 1    
    34   30   37 1    
    35   33   34 1    
    36   33   35 1    
    37   35   36 1    
    38   35   37 1    
    39   37   38 1    
    40   38   39 1    
    41   39   40 1    
    42   39   44 1    
    43   40   41 1    
    44   40   43 1    
    45   41   42 1    
    46   41   48 1    
    47   44   45 1    
    48   44   46 1    
    49   46   47 1    
    50   46   48 1    
    51   48   49 1    
    52   49   50 1    
    53   49   51 1    
    54   51   52 1    
    55   51   53 1    
    56   51   54 1    
    57   54   55 1    
    58   54   56 1    
    59   56   57 1    
    60   56   58 1    
    61   58   59 1    
    62   58   60 1    
    63   60   61 1    
    64   60   62 1    
    65   60   63 1    
    66   63   64 1    
    67   63   65 1    
    68   63   66 1    
    69   66   67 1    
    70   66   71 1    
    71   66   72 1    
    72   67   68 1    
    73   67   69 1    
    74   67   70 1    
    75   72   73 1    
    76   72   74 1    
    77   72   75 1    
@<TRIPOS>SUBSTRUCTURE
     1 ****        1 GROUP             0       ****    0 ROOT    
@<TRIPOS>MOLECULE
Cpd1-5000
75   77    1
SMALL
USER_CHARGES


@<TRIPOS>ATOM
      1 C           3.6939    2.9226   -3.6294 C.3       1 ****        0.0000 
      2 H           2.6167    2.7590   -3.6723 H         1 ****        0.0000 
      3 H           3.9150    3.6807   -2.8742 H         1 ****        0.0000 
      4 H           4.0328    3.2981   -4.5996 H         1 ****        0.0000 
      5 C           4.4410    1.6300   -3.3200 C.3       1 ****        0.0000 
      6 C           5.9321    1.8996   -3.1616 C.3       1 ****        0.0000 
      7 H           6.4682    0.9742   -2.9311 H         1 ****        0.0000 
      8 H           6.3324    2.3145   -4.0906 H         1 ****        0.0000 
      9 H           6.1039    2.6172   -2.3548 H         1 ****        0.0000 
     10 C           4.1957    0.5557   -4.3757 C.3       1 ****        0.0000 
     11 H           4.6786   -0.3810   -4.0790 H         1 ****        0.0000 
     12 H           3.1291    0.3802   -4.5253 H         1 ****        0.0000 
     13 H           4.6328    0.8804   -5.3233 H         1 ****        0.0000 
     14 O           4.0689    1.1114   -1.9987 O.3       1 ****        0.0000 
     15 C           2.8366    0.6498   -1.7614 C.3       1 ****        0.0000 
     16 O           1.8566    0.8143   -2.4798 O.3       1 ****        0.0000 
     17 N           2.7885   -0.0385   -0.5892 N.3       1 ****        0.0000 
     18 H           3.6454   -0.1516   -0.0651 H         1 ****        0.0000 
     19 C           1.6096   -0.8140   -0.2262 C.3       1 ****        0.0000 
     20 C           0.6446    0.0710    0.5849 C.3       1 ****        0.0000 
     21 N          -0.0995    0.9293   -0.1782 N.3       1 ****        0.0000 
     22 H           0.2411    1.0581   -1.1310 H         1 ****        0.0000 
     23 O           0.5862    0.0214    1.8038 O.3       1 ****        0.0000 
     24 H           1.1134   -1.0925   -1.1610 H         1 ****        0.0000 
     25 C           1.9953   -2.0834    0.5448 C.3       1 ****        0.0000 
     26 H           2.4517   -1.8080    1.5000 H         1 ****        0.0000 
     27 H           2.7348   -2.6263   -0.0536 H         1 ****        0.0000 
     28 C           0.7576   -2.9205    0.7701 C.3       1 ****        0.0000 
     29 C           0.1334   -2.9781    2.0174 C.3       1 ****        0.0000 
     30 C          -1.1516   -3.5058    2.1510 C.3       1 ****        0.0000 
     31 H          -1.6731   -3.4796    3.1017 H         1 ****        0.0000 
     32 H           0.6173   -2.5260    2.8773 H         1 ****        0.0000 
     33 C           0.1294   -3.5259   -0.3242 C.3       1 ****        0.0000 
     34 H           0.6237   -3.5347   -1.2939 H         1 ****        0.0000 
     35 C          -1.1532   -4.0489   -0.2087 C.3       1 ****        0.0000 
     36 H          -1.6767   -4.4468   -1.0721 H         1 ****        0.0000 
     37 C          -1.8083   -3.9654    1.0175 C.3       1 ****        0.0000 
     38 O          -3.1880   -4.2021    1.0619 O.3       1 ****        0.0000 
     39 C          -3.8110   -3.1165    0.4561 C.3       1 ****        0.0000 
     40 C          -4.3593   -3.2674   -0.8137 C.3       1 ****        0.0000 
     41 C          -4.7456   -2.1292   -1.5172 C.3       1 ****        0.0000 
     42 H          -5.1191   -2.2092   -2.5330 H         1 ****        0.0000 
     43 H          -4.4083   -4.2538   -1.2621 H         1 ****        0.0000 
     44 C          -3.7673   -1.8699    1.0832 C.3       1 ****        0.0000 
     45 H          -3.3743   -1.7873    2.0903 H         1 ****        0.0000 
     46 C          -4.1355   -0.7385    0.3690 C.3       1 ****        0.0000 
     47 H          -4.0529    0.2372    0.8368 H         1 ****        0.0000 
     48 C          -4.5786   -0.8583   -0.9553 C.3       1 ****        0.0000 
     49 C          -4.7963    0.3305   -1.8237 C.3       1 ****        0.0000 
     50 O          -5.5341    0.2890   -2.7910 O.3       1 ****        0.0000 
     51 C          -4.0541    1.6313   -1.5227 C.3       1 ****        0.0000 
     52 H          -4.0778    2.2242   -2.4416 H         1 ****        0.0000 
     53 H          -4.6122    2.1852   -0.7584 H         1 ****        0.0000 
     54 N          -2.6990    1.4681   -1.0269 N.3       1 ****        0.0000 
     55 H          -2.1037    0.7370   -1.3935 H         1 ****        0.0000 
     56 C          -2.2268    2.2582   -0.0341 C.3       1 ****        0.0000 
     57 O          -2.9104    3.1338    0.4893 O.3       1 ****        0.0000 
     58 C          -0.7925    2.0434    0.4530 C.3       1 ****        0.0000 
     59 H          -0.8889    1.7847    1.5129 H         1 ****        0.0000 
     60 C           0.0107    3.3485    0.3305 C.3       1 ****        0.0000 
     61 H          -0.6290    4.1687    0.6683 H         1 ****        0.0000 
     62 H           0.2317    3.5195   -0.7320 H         1 ****        0.0000 
     63 C           1.2959    3.2985    1.1595 C.3       1 ****        0.0000 
     64 H           1.0172    3.2585    2.2206 H         1 ****        0.0000 
     65 H           1.8394    2.3678    0.9451 H         1 ****        0.0000 
     66 C           2.2588    4.4733    0.9288 C.3       1 ****        0.0000 
     67 C           2.9278    4.3814   -0.4437 C.3       1 ****        0.0000 
     68 H           3.6788    5.1680   -0.5697 H         1 ****        0.0000 
     69 H           3.4240    3.4127   -0.5745 H         1 ****        0.0000 
     70 H           2.1961    4.4943   -1.2523 H         1 ****        0.0000 
     71 H           3.0483    4.3814    1.6869 H         1 ****        0.0000 
     72 C           1.5798    5.8300    1.1217 C.3       1 ****        0.0000 
     73 H           0.8434    6.0183    0.3323 H         1 ****        0.0000 
     74 H           1.0607    5.8826    2.0851 H         1 ****        0.0000 
     75 H           2.3151    6.6400    1.0872 H         1 ****        0.0000 
@<TRIPOS>BOND
     1    1    2 1    
     2    1    3 1    
     3    1    4 1    
     4    1    5 1    
     5    5    6 1    
     6    5   10 1    
     7    5   14 1    
     8    6    7 1    
     9    6    8 1    
    10    6    9 1    
    11   10   11 1    
    12   10   12 1    
    13   10   13 1    
    14   14   15 1    
    15   15   16 1    
    16   15   17 1    
    17   17   18 1    
    18   17   19 1    
    19   19   20 1    
    20   19   24 1    
    21   19   25 1    
    22   20   21 1    
    23   20   23 1    
    24   21   22 1    
    25   21   58 1    
    26   25   26 1    
    27   25   27 1    
    28   25   28 1    
    29   28   29 1    
    30   28   33 1    
    31   29   30 1    
    32   29   32 1    
    33   30   31 1    
    34   30   37 1    
    35   33   34 1    
    36   33   35 1    
    37   35   36 1    
    38   35   37 1    
    39   37   38 1    
    40   38   39 1    
    41   39   40 1    
    42   39   44 1    
    43   40   41 1    
    44   40   43 1    
    45   41   42 1    
    46   41   48 1    
    47   44   45 1    
    48   44   46 1    
    49   46   47 1    
    50   46   48 1    
    51   48   49 1    
    52   49   50 1    
    53   49   51 1    
    54   51   52 1    
    55   51   53 1    
    56   51   54 1    
    57   54   55 1    
    58   54   56 1    
    59   56   57 1    
    60   56   58 1    
    61   58   59 1    
    62   58   60 1    
    63   60   61 1    
    64   60   62 1    
    65   60   63 1    
    66   63   64 1    
    67   63   65 1    
    68   63   66 1    
    69   66   67 1    
    70   66   71 1    
    71   66   72 1    
    72   67   68 1    
    73   67   69 1    
    74   67   70 1    
    75   72   73 1    
    76   72   74 1    
    77   72   75 1    
@<TRIPOS>SUBSTRUCTURE
     1 ****        1 GROUP             0       ****    0 ROOT    
