@<TRIPOS>MOLECULE
Cpd1-500
75   77    1
SMALL
USER_CHARGES


@<TRIPOS>ATOM
      1 C           5.4484   -2.0585   -2.3422 C.3       1 ****        0.0000 
      2 H           6.0321   -1.5682   -3.1302 H         1 ****        0.0000 
      3 H           5.5882   -3.0816   -2.7116 H         1 ****        0.0000 
      4 H           4.4351   -1.7043   -2.5699 H         1 ****        0.0000 
      5 C           5.9760   -1.7772   -0.9503 C.3       1 ****        0.0000 
      6 C           6.4193   -0.3393   -0.7467 C.3       1 ****        0.0000 
      7 H           6.2829    0.0365    0.2750 H         1 ****        0.0000 
      8 H           7.4806   -0.2908   -1.0215 H         1 ****        0.0000 
      9 H           5.8000    0.3102   -1.3780 H         1 ****        0.0000 
     10 C           7.0507   -2.7733   -0.5532 C.3       1 ****        0.0000 
     11 H           7.2319   -2.8257    0.5268 H         1 ****        0.0000 
     12 H           6.8714   -3.7781   -0.9525 H         1 ****        0.0000 
     13 H           8.0287   -2.4678   -0.9461 H         1 ****        0.0000 
     14 O           4.9507   -2.2039   -0.0411 O.3       1 ****        0.0000 
     15 C           3.7578   -1.5607   -0.0080 C.3       1 ****        0.0000 
     16 O           3.3402   -0.6730   -0.7583 O.3       1 ****        0.0000 
     17 N           2.8165   -2.2042    0.7718 N.3       1 ****        0.0000 
     18 H           3.1801   -2.9677    1.3319 H         1 ****        0.0000 
     19 C           1.3023   -2.0546    0.5891 C.3       1 ****        0.0000 
     20 C           0.8245   -0.6870    1.0149 C.3       1 ****        0.0000 
     21 N           0.4055    0.1539    0.0035 N.3       1 ****        0.0000 
     22 H           0.4612   -0.1965   -0.9457 H         1 ****        0.0000 
     23 O           0.5801   -0.4631    2.1752 O.3       1 ****        0.0000 
     24 H           0.9672   -2.3340   -0.4181 H         1 ****        0.0000 
     25 C           0.6333   -3.2032    1.4474 C.3       1 ****        0.0000 
     26 H           0.8203   -3.0935    2.5229 H         1 ****        0.0000 
     27 H           1.1785   -4.0586    1.0266 H         1 ****        0.0000 
     28 C          -0.8424   -3.1631    1.1272 C.3       1 ****        0.0000 
     29 C          -1.7303   -2.4665    1.9951 C.3       1 ****        0.0000 
     30 C          -3.0814   -2.4442    1.6284 C.3       1 ****        0.0000 
     31 H          -3.7889   -1.8812    2.2304 H         1 ****        0.0000 
     32 H          -1.3836   -2.0373    2.9315 H         1 ****        0.0000 
     33 C          -1.2889   -3.7071   -0.0876 C.3       1 ****        0.0000 
     34 H          -0.5351   -4.1764   -0.7128 H         1 ****        0.0000 
     35 C          -2.6256   -3.5441   -0.4525 C.3       1 ****        0.0000 
     36 H          -2.9773   -3.9552   -1.3938 H         1 ****        0.0000 
     37 C          -3.5475   -2.9460    0.3901 C.3       1 ****        0.0000 
     38 O          -4.7782   -2.6802   -0.0683 O.3       1 ****        0.0000 
     39 C          -4.9435   -1.3233   -0.3812 C.3       1 ****        0.0000 
     40 C          -4.4587   -0.8127   -1.5854 C.3       1 ****        0.0000 
     41 C          -4.3827    0.5341   -1.7118 C.3       1 ****        0.0000 
     42 H          -3.8855    0.8167   -2.6350 H         1 ****        0.0000 
     43 H          -4.0858   -1.3930   -2.4248 H         1 ****        0.0000 
     44 C          -5.5738   -0.5009    0.4979 C.3       1 ****        0.0000 
     45 H          -6.0479   -0.9968    1.3396 H         1 ****        0.0000 
     46 C          -5.6140    0.9243    0.3788 C.3       1 ****        0.0000 
     47 H          -6.0955    1.5297    1.1418 H         1 ****        0.0000 
     48 C          -4.8609    1.3930   -0.6966 C.3       1 ****        0.0000 
     49 C          -4.4849    2.8947   -0.7567 C.3       1 ****        0.0000 
     50 O          -5.1896    3.7513   -0.2332 O.3       1 ****        0.0000 
     51 C          -3.1746    3.2646   -1.4369 C.3       1 ****        0.0000 
     52 H          -3.0402    2.7162   -2.3774 H         1 ****        0.0000 
     53 H          -3.1196    4.2946   -1.8089 H         1 ****        0.0000 
     54 N          -2.0310    2.8833   -0.5547 N.3       1 ****        0.0000 
     55 H          -2.0782    3.2290    0.3969 H         1 ****        0.0000 
     56 C          -1.2183    1.8321   -0.7981 C.3       1 ****        0.0000 
     57 O          -1.2701    1.2643   -1.8698 O.3       1 ****        0.0000 
     58 C          -0.2124    1.4884    0.3156 C.3       1 ****        0.0000 
     59 H          -0.7384    1.4305    1.2759 H         1 ****        0.0000 
     60 C           0.7625    2.6282    0.5138 C.3       1 ****        0.0000 
     61 H           1.4099    2.3431    1.3529 H         1 ****        0.0000 
     62 H           0.2130    3.4960    0.8982 H         1 ****        0.0000 
     63 C           1.5737    2.9804   -0.7252 C.3       1 ****        0.0000 
     64 H           2.2350    2.2323   -1.1788 H         1 ****        0.0000 
     65 H           0.7930    3.2551   -1.4456 H         1 ****        0.0000 
     66 C           2.3486    4.2925   -0.5074 C.3       1 ****        0.0000 
     67 C           3.4207    4.0154    0.5878 C.3       1 ****        0.0000 
     68 H           3.8779    3.0359    0.4014 H         1 ****        0.0000 
     69 H           4.1842    4.8046    0.5916 H         1 ****        0.0000 
     70 H           2.8806    3.9507    1.5408 H         1 ****        0.0000 
     71 H           1.6410    5.0012   -0.0592 H         1 ****        0.0000 
     72 C           2.8910    4.8138   -1.8389 C.3       1 ****        0.0000 
     73 H           3.6643    5.5701   -1.6493 H         1 ****        0.0000 
     74 H           3.3550    4.0248   -2.4429 H         1 ****        0.0000 
     75 H           2.0065    5.1814   -2.3744 H         1 ****        0.0000 
@<TRIPOS>BOND
     1    1    2 1    
     2    1    3 1    
     3    1    4 1    
     4    1    5 1    
     5    5    6 1    
     6    5   10 1    
     7    5   14 1    
     8    6    7 1    
     9    6    8 1    
    10    6    9 1    
    11   10   11 1    
    12   10   12 1    
    13   10   13 1    
    14   14   15 1    
    15   15   16 1    
    16   15   17 1    
    17   17   18 1    
    18   17   19 1    
    19   19   20 1    
    20   19   24 1    
    21   19   25 1    
    22   20   21 1    
    23   20   23 1    
    24   21   22 1    
    25   21   58 1    
    26   25   26 1    
    27   25   27 1    
    28   25   28 1    
    29   28   29 1    
    30   28   33 1    
    31   29   30 1    
    32   29   32 1    
    33   30   31 1    
    34   30   37 1    
    35   33   34 1    
    36   33   35 1    
    37   35   36 1    
    38   35   37 1    
    39   37   38 1    
    40   38   39 1    
    41   39   40 1    
    42   39   44 1    
    43   40   41 1    
    44   40   43 1    
    45   41   42 1    
    46   41   48 1    
    47   44   45 1    
    48   44   46 1    
    49   46   47 1    
    50   46   48 1    
    51   48   49 1    
    52   49   50 1    
    53   49   51 1    
    54   51   52 1    
    55   51   53 1    
    56   51   54 1    
    57   54   55 1    
    58   54   56 1    
    59   56   57 1    
    60   56   58 1    
    61   58   59 1    
    62   58   60 1    
    63   60   61 1    
    64   60   62 1    
    65   60   63 1    
    66   63   64 1    
    67   63   65 1    
    68   63   66 1    
    69   66   67 1    
    70   66   71 1    
    71   66   72 1    
    72   67   68 1    
    73   67   69 1    
    74   67   70 1    
    75   72   73 1    
    76   72   74 1    
    77   72   75 1    
@<TRIPOS>SUBSTRUCTURE
     1 ****        1 GROUP             0       ****    0 ROOT    
@<TRIPOS>MOLECULE
Cpd1-1000-MEC
75   77    1
SMALL
USER_CHARGES


@<TRIPOS>ATOM
      1 C           5.3930   -1.6270   -2.6070 C.3       1 ****        0.0000 
      2 H           6.3320   -1.6820   -3.1700 H         1 ****        0.0000 
      3 H           4.9490   -2.6260   -2.5050 H         1 ****        0.0000 
      4 H           4.6460   -0.9530   -3.0460 H         1 ****        0.0000 
      5 C           5.7800   -1.1940   -1.1140 C.3       1 ****        0.0000 
      6 C           5.8140    0.3010   -0.9970 C.3       1 ****        0.0000 
      7 H           4.8370    0.7880   -1.1040 H         1 ****        0.0000 
      8 H           6.0720    0.4890    0.0520 H         1 ****        0.0000 
      9 H           6.5550    0.7540   -1.6680 H         1 ****        0.0000 
     10 C           7.0830   -1.7740   -0.6670 C.3       1 ****        0.0000 
     11 H           7.5420   -2.4060   -1.4380 H         1 ****        0.0000 
     12 H           7.8300   -1.0620   -0.2950 H         1 ****        0.0000 
     13 H           6.9900   -2.4870    0.1610 H         1 ****        0.0000 
     14 O           4.7730   -1.5830   -0.1740 O.3       1 ****        0.0000 
     15 C           3.4670   -1.3650   -0.4050 C.3       1 ****        0.0000 
     16 O           2.9620   -0.7080   -1.2980 O.3       1 ****        0.0000 
     17 N           2.7520   -2.1540    0.4830 N.3       1 ****        0.0000 
     18 H           3.2820   -2.6580    1.1830 H         1 ****        0.0000 
     19 C           1.2090   -2.0410    0.5440 C.3       1 ****        0.0000 
     20 C           0.7470   -0.6530    0.9240 C.3       1 ****        0.0000 
     21 N           0.5320    0.2380   -0.1100 N.3       1 ****        0.0000 
     22 H           0.9630    0.0190   -0.9990 H         1 ****        0.0000 
     23 O           0.4210   -0.2830    2.0680 O.3       1 ****        0.0000 
     24 H           0.8250   -2.2630   -0.4580 H         1 ****        0.0000 
     25 C           0.6040   -3.1530    1.4430 C.3       1 ****        0.0000 
     26 H           0.7010   -2.8740    2.5000 H         1 ****        0.0000 
     27 H           1.2090   -4.0520    1.2720 H         1 ****        0.0000 
     28 C          -0.8740   -3.2440    1.1300 C.3       1 ****        0.0000 
     29 C          -1.7270   -2.5770    2.0000 C.3       1 ****        0.0000 
     30 C          -3.0850   -2.4640    1.7160 C.3       1 ****        0.0000 
     31 H          -3.6340   -1.7500    2.3230 H         1 ****        0.0000 
     32 H          -1.3130   -2.2240    2.9400 H         1 ****        0.0000 
     33 C          -1.3780   -3.7950   -0.0900 C.3       1 ****        0.0000 
     34 H          -0.7380   -4.3980   -0.7280 H         1 ****        0.0000 
     35 C          -2.7260   -3.6190   -0.4070 C.3       1 ****        0.0000 
     36 H          -3.1780   -4.1340   -1.2510 H         1 ****        0.0000 
     37 C          -3.5890   -2.9990    0.5120 C.3       1 ****        0.0000 
     38 O          -4.9000   -2.7190    0.0870 O.3       1 ****        0.0000 
     39 C          -5.1000   -1.4160   -0.3750 C.3       1 ****        0.0000 
     40 C          -4.2440   -0.9220   -1.3370 C.3       1 ****        0.0000 
     41 C          -4.0800    0.4690   -1.5500 C.3       1 ****        0.0000 
     42 H          -3.3610    0.7650   -2.3080 H         1 ****        0.0000 
     43 H          -3.5560   -1.6180   -1.8070 H         1 ****        0.0000 
     44 C          -5.9310   -0.4930    0.2850 C.3       1 ****        0.0000 
     45 H          -6.5720   -0.8600    1.0820 H         1 ****        0.0000 
     46 C          -5.7460    0.8930    0.1440 C.3       1 ****        0.0000 
     47 H          -6.3890    1.5430    0.7320 H         1 ****        0.0000 
     48 C          -4.8290    1.3580   -0.7850 C.3       1 ****        0.0000 
     49 C          -4.5310    2.8620   -0.7060 C.3       1 ****        0.0000 
     50 O          -5.2660    3.6610   -0.0520 O.3       1 ****        0.0000 
     51 C          -3.1370    3.2860   -1.2430 C.3       1 ****        0.0000 
     52 H          -3.0420    2.8910   -2.2620 H         1 ****        0.0000 
     53 H          -3.0880    4.3790   -1.1610 H         1 ****        0.0000 
     54 N          -2.0360    2.7760   -0.4040 N.3       1 ****        0.0000 
     55 H          -1.9840    2.9830    0.5860 H         1 ****        0.0000 
     56 C          -1.0200    2.0010   -0.9170 C.3       1 ****        0.0000 
     57 O          -0.8820    1.6270   -2.0750 O.3       1 ****        0.0000 
     58 C           0.0050    1.5950    0.1280 C.3       1 ****        0.0000 
     59 H          -0.6210    1.5340    1.0270 H         1 ****        0.0000 
     60 C           1.1850    2.6210    0.1410 C.3       1 ****        0.0000 
     61 H           0.6820    3.5950    0.1530 H         1 ****        0.0000 
     62 H           1.5820    2.7100   -0.8790 H         1 ****        0.0000 
     63 C           2.3630    2.5040    1.2000 C.3       1 ****        0.0000 
     64 H           1.9440    2.6550    2.2030 H         1 ****        0.0000 
     65 H           2.7090    1.4640    1.1800 H         1 ****        0.0000 
     66 C           3.5280    3.4530    1.0590 C.3       1 ****        0.0000 
     67 C           2.9710    4.8770    1.0680 C.3       1 ****        0.0000 
     68 H           2.4560    5.1110    0.1280 H         1 ****        0.0000 
     69 H           2.2380    4.9500    1.8790 H         1 ****        0.0000 
     70 H           3.7390    5.5480    1.4730 H         1 ****        0.0000 
     71 H           4.1750    3.1830    0.2150 H         1 ****        0.0000 
     72 C           4.4520    3.2710    2.2560 C.3       1 ****        0.0000 
     73 H           5.4100    3.7470    2.0150 H         1 ****        0.0000 
     74 H           4.0390    3.8020    3.1220 H         1 ****        0.0000 
     75 H           4.5570    2.2100    2.5120 H         1 ****        0.0000 
@<TRIPOS>BOND
     1    1    2 1    
     2    1    3 1    
     3    1    4 1    
     4    1    5 1    
     5    5    6 1    
     6    5   10 1    
     7    5   14 1    
     8    6    7 1    
     9    6    8 1    
    10    6    9 1    
    11   10   11 1    
    12   10   12 1    
    13   10   13 1    
    14   14   15 1    
    15   15   16 1    
    16   15   17 1    
    17   17   18 1    
    18   17   19 1    
    19   19   20 1    
    20   19   24 1    
    21   19   25 1    
    22   20   21 1    
    23   20   23 1    
    24   21   22 1    
    25   21   58 1    
    26   25   26 1    
    27   25   27 1    
    28   25   28 1    
    29   28   29 1    
    30   28   33 1    
    31   29   30 1    
    32   29   32 1    
    33   30   31 1    
    34   30   37 1    
    35   33   34 1    
    36   33   35 1    
    37   35   36 1    
    38   35   37 1    
    39   37   38 1    
    40   38   39 1    
    41   39   40 1    
    42   39   44 1    
    43   40   41 1    
    44   40   43 1    
    45   41   42 1    
    46   41   48 1    
    47   44   45 1    
    48   44   46 1    
    49   46   47 1    
    50   46   48 1    
    51   48   49 1    
    52   49   50 1    
    53   49   51 1    
    54   51   52 1    
    55   51   53 1    
    56   51   54 1    
    57   54   55 1    
    58   54   56 1    
    59   56   57 1    
    60   56   58 1    
    61   58   59 1    
    62   58   60 1    
    63   60   61 1    
    64   60   62 1    
    65   60   63 1    
    66   63   64 1    
    67   63   65 1    
    68   63   66 1    
    69   66   67 1    
    70   66   71 1    
    71   66   72 1    
    72   67   68 1    
    73   67   69 1    
    74   67   70 1    
    75   72   73 1    
    76   72   74 1    
    77   72   75 1    
@<TRIPOS>SUBSTRUCTURE
     1 ****        1 GROUP             0       ****    0 ROOT    
@<TRIPOS>MOLECULE
Cpd1-1500
75   77    1
SMALL
USER_CHARGES


@<TRIPOS>ATOM
      1 C           6.1487    0.2518   -1.1583 C.3       1 ****        0.0000 
      2 H           6.0917    0.4977   -0.0905 H         1 ****        0.0000 
      3 H           7.0047    0.6251   -1.7348 H         1 ****        0.0000 
      4 H           5.2323    0.7443   -1.5074 H         1 ****        0.0000 
      5 C           6.0326   -1.3280   -1.2138 C.3       1 ****        0.0000 
      6 C           7.2438   -1.9820   -0.6510 C.3       1 ****        0.0000 
      7 H           7.1459   -2.1044    0.4353 H         1 ****        0.0000 
      8 H           7.2897   -3.0219   -0.9990 H         1 ****        0.0000 
      9 H           8.1391   -1.4042   -0.9109 H         1 ****        0.0000 
     10 C           5.8382   -1.9527   -2.6015 C.3       1 ****        0.0000 
     11 H           5.3377   -2.9090   -2.4103 H         1 ****        0.0000 
     12 H           5.0718   -1.3478   -3.1016 H         1 ****        0.0000 
     13 H           6.7582   -2.0794   -3.1848 H         1 ****        0.0000 
     14 O           5.0227   -1.6515   -0.2680 O.3       1 ****        0.0000 
     15 C           3.7208   -1.3661   -0.5462 C.3       1 ****        0.0000 
     16 O           3.2292   -0.7000   -1.4160 O.3       1 ****        0.0000 
     17 N           2.9607   -2.0228    0.3876 N.3       1 ****        0.0000 
     18 H           3.4920   -2.6171    1.0123 H         1 ****        0.0000 
     19 C           1.4870   -1.9054    0.3904 C.3       1 ****        0.0000 
     20 C           0.8787   -0.7212    1.1826 C.3       1 ****        0.0000 
     21 N           0.1177    0.1882    0.3979 N.3       1 ****        0.0000 
     22 H           0.1225   -0.0465   -0.5876 H         1 ****        0.0000 
     23 O           1.1031   -0.5562    2.3722 O.3       1 ****        0.0000 
     24 H           1.2691   -1.8518   -0.6828 H         1 ****        0.0000 
     25 C           0.8160   -3.2808    0.8024 C.3       1 ****        0.0000 
     26 H           1.0524   -3.5369    1.8422 H         1 ****        0.0000 
     27 H           1.1982   -4.1608    0.2681 H         1 ****        0.0000 
     28 C          -0.7526   -3.1789    0.7615 C.3       1 ****        0.0000 
     29 C          -1.5296   -2.6737    1.8339 C.3       1 ****        0.0000 
     30 C          -2.9022   -2.5080    1.7330 C.3       1 ****        0.0000 
     31 H          -3.3800   -1.9972    2.5639 H         1 ****        0.0000 
     32 H          -1.0119   -2.2796    2.7047 H         1 ****        0.0000 
     33 C          -1.4329   -3.7792   -0.3296 C.3       1 ****        0.0000 
     34 H          -0.8350   -4.3555   -1.0313 H         1 ****        0.0000 
     35 C          -2.8398   -3.6304   -0.4163 C.3       1 ****        0.0000 
     36 H          -3.3271   -3.9967   -1.3140 H         1 ****        0.0000 
     37 C          -3.6089   -2.9188    0.5820 C.3       1 ****        0.0000 
     38 O          -4.9121   -2.5278    0.3315 O.3       1 ****        0.0000 
     39 C          -4.9378   -1.2595   -0.0834 C.3       1 ****        0.0000 
     40 C          -4.4740   -0.9438   -1.3586 C.3       1 ****        0.0000 
     41 C          -4.3585    0.3482   -1.7875 C.3       1 ****        0.0000 
     42 H          -3.7549    0.5223   -2.6736 H         1 ****        0.0000 
     43 H          -3.9899   -1.6612   -2.0147 H         1 ****        0.0000 
     44 C          -5.6074   -0.2397    0.6217 C.3       1 ****        0.0000 
     45 H          -6.1285   -0.5102    1.5358 H         1 ****        0.0000 
     46 C          -5.5027    1.1352    0.2530 C.3       1 ****        0.0000 
     47 H          -5.8031    1.8962    0.9669 H         1 ****        0.0000 
     48 C          -4.9041    1.4642   -0.9842 C.3       1 ****        0.0000 
     49 C          -4.5508    2.9072   -1.1996 C.3       1 ****        0.0000 
     50 O          -5.3406    3.7621   -0.8806 O.3       1 ****        0.0000 
     51 C          -3.1068    3.2453   -1.6217 C.3       1 ****        0.0000 
     52 H          -2.8962    2.6498   -2.5179 H         1 ****        0.0000 
     53 H          -3.0808    4.2955   -1.9370 H         1 ****        0.0000 
     54 N          -2.2170    2.8391   -0.4225 N.3       1 ****        0.0000 
     55 H          -2.2554    3.3534    0.4485 H         1 ****        0.0000 
     56 C          -1.2925    1.8680   -0.5127 C.3       1 ****        0.0000 
     57 O          -1.0450    1.3282   -1.5443 O.3       1 ****        0.0000 
     58 C          -0.6501    1.4257    0.8091 C.3       1 ****        0.0000 
     59 H          -1.4229    1.1518    1.5377 H         1 ****        0.0000 
     60 C           0.3185    2.4985    1.3836 C.3       1 ****        0.0000 
     61 H           1.0572    2.0777    2.0779 H         1 ****        0.0000 
     62 H          -0.1953    3.2877    1.9460 H         1 ****        0.0000 
     63 C           1.2110    3.1672    0.2896 C.3       1 ****        0.0000 
     64 H           1.9692    2.4586   -0.0622 H         1 ****        0.0000 
     65 H           0.7444    3.4032   -0.6745 H         1 ****        0.0000 
     66 C           2.0084    4.3840    0.8318 C.3       1 ****        0.0000 
     67 C           1.1427    5.5002    1.3848 C.3       1 ****        0.0000 
     68 H           0.3473    5.6050    0.6356 H         1 ****        0.0000 
     69 H           0.7300    5.2298    2.3640 H         1 ****        0.0000 
     70 H           1.7739    6.3932    1.4757 H         1 ****        0.0000 
     71 H           2.4945    4.7260   -0.0900 H         1 ****        0.0000 
     72 C           3.0666    3.9858    1.8320 C.3       1 ****        0.0000 
     73 H           3.7932    4.7269    2.1855 H         1 ****        0.0000 
     74 H           2.6481    3.5122    2.7272 H         1 ****        0.0000 
     75 H           3.6497    3.1559    1.4143 H         1 ****        0.0000 
@<TRIPOS>BOND
     1    1    2 1    
     2    1    3 1    
     3    1    4 1    
     4    1    5 1    
     5    5    6 1    
     6    5   10 1    
     7    5   14 1    
     8    6    7 1    
     9    6    8 1    
    10    6    9 1    
    11   10   11 1    
    12   10   12 1    
    13   10   13 1    
    14   14   15 1    
    15   15   16 1    
    16   15   17 1    
    17   17   18 1    
    18   17   19 1    
    19   19   20 1    
    20   19   24 1    
    21   19   25 1    
    22   20   21 1    
    23   20   23 1    
    24   21   22 1    
    25   21   58 1    
    26   25   26 1    
    27   25   27 1    
    28   25   28 1    
    29   28   29 1    
    30   28   33 1    
    31   29   30 1    
    32   29   32 1    
    33   30   31 1    
    34   30   37 1    
    35   33   34 1    
    36   33   35 1    
    37   35   36 1    
    38   35   37 1    
    39   37   38 1    
    40   38   39 1    
    41   39   40 1    
    42   39   44 1    
    43   40   41 1    
    44   40   43 1    
    45   41   42 1    
    46   41   48 1    
    47   44   45 1    
    48   44   46 1    
    49   46   47 1    
    50   46   48 1    
    51   48   49 1    
    52   49   50 1    
    53   49   51 1    
    54   51   52 1    
    55   51   53 1    
    56   51   54 1    
    57   54   55 1    
    58   54   56 1    
    59   56   57 1    
    60   56   58 1    
    61   58   59 1    
    62   58   60 1    
    63   60   61 1    
    64   60   62 1    
    65   60   63 1    
    66   63   64 1    
    67   63   65 1    
    68   63   66 1    
    69   66   67 1    
    70   66   71 1    
    71   66   72 1    
    72   67   68 1    
    73   67   69 1    
    74   67   70 1    
    75   72   73 1    
    76   72   74 1    
    77   72   75 1    
@<TRIPOS>SUBSTRUCTURE
     1 ****        1 GROUP             0       ****    0 ROOT    
@<TRIPOS>MOLECULE
Cpd1-2000
75   77    1
SMALL
USER_CHARGES


@<TRIPOS>ATOM
      1 C           4.8270    0.5897   -2.6630 C.3       1 ****        0.0000 
      2 H           5.6390    1.0349   -3.2489 H         1 ****        0.0000 
      3 H           3.9003    0.8882   -3.1710 H         1 ****        0.0000 
      4 H           4.8401    1.0765   -1.6799 H         1 ****        0.0000 
      5 C           4.9479   -0.9521   -2.5134 C.3       1 ****        0.0000 
      6 C           6.3644   -1.2694   -2.0556 C.3       1 ****        0.0000 
      7 H           7.0781   -0.8202   -2.7575 H         1 ****        0.0000 
      8 H           6.5424   -0.7171   -1.1244 H         1 ****        0.0000 
      9 H           6.6583   -2.3234   -1.9760 H         1 ****        0.0000 
     10 C           4.6110   -1.7168   -3.8614 C.3       1 ****        0.0000 
     11 H           5.2035   -1.2107   -4.6324 H         1 ****        0.0000 
     12 H           4.8686   -2.7831   -3.8809 H         1 ****        0.0000 
     13 H           3.5719   -1.6484   -4.2070 H         1 ****        0.0000 
     14 O           4.0215   -1.3638   -1.5563 O.3       1 ****        0.0000 
     15 C           2.7217   -1.1464   -1.6073 C.3       1 ****        0.0000 
     16 O           2.0573   -0.5264   -2.4335 O.3       1 ****        0.0000 
     17 N           2.2126   -1.6828   -0.5212 N.3       1 ****        0.0000 
     18 H           2.8858   -2.1407    0.0807 H         1 ****        0.0000 
     19 C           0.7499   -1.7007   -0.1361 C.3       1 ****        0.0000 
     20 C           0.3343   -0.3283    0.4326 C.3       1 ****        0.0000 
     21 N           0.6836    0.6710   -0.3332 N.3       1 ****        0.0000 
     22 H           1.1996    0.5347   -1.1938 H         1 ****        0.0000 
     23 O          -0.4842   -0.1623    1.3863 O.3       1 ****        0.0000 
     24 H           0.1817   -1.7756   -1.0706 H         1 ****        0.0000 
     25 C           0.4406   -2.9352    0.7439 C.3       1 ****        0.0000 
     26 H           0.9336   -2.7936    1.7130 H         1 ****        0.0000 
     27 H           0.9285   -3.8415    0.3666 H         1 ****        0.0000 
     28 C          -1.0998   -3.1482    0.7894 C.3       1 ****        0.0000 
     29 C          -1.8258   -2.9250    2.0133 C.3       1 ****        0.0000 
     30 C          -3.1907   -2.9483    2.0097 C.3       1 ****        0.0000 
     31 H          -3.7006   -2.5687    2.8897 H         1 ****        0.0000 
     32 H          -1.2481   -2.5778    2.8654 H         1 ****        0.0000 
     33 C          -1.7513   -3.5614   -0.3333 C.3       1 ****        0.0000 
     34 H          -1.1249   -3.9167   -1.1452 H         1 ****        0.0000 
     35 C          -3.1599   -3.5721   -0.3955 C.3       1 ****        0.0000 
     36 H          -3.6713   -3.9588   -1.2727 H         1 ****        0.0000 
     37 C          -3.8453   -3.2067    0.7943 C.3       1 ****        0.0000 
     38 O          -5.1679   -2.7362    0.8045 O.3       1 ****        0.0000 
     39 C          -5.4554   -1.5623    0.2333 C.3       1 ****        0.0000 
     40 C          -5.2910   -1.4179   -1.1476 C.3       1 ****        0.0000 
     41 C          -4.9462   -0.1749   -1.7510 C.3       1 ****        0.0000 
     42 H          -4.7858   -0.1686   -2.8256 H         1 ****        0.0000 
     43 H          -5.3926   -2.2763   -1.8047 H         1 ****        0.0000 
     44 C          -5.3056   -0.4112    1.0228 C.3       1 ****        0.0000 
     45 H          -5.3757   -0.4717    2.1048 H         1 ****        0.0000 
     46 C          -4.7790    0.7944    0.4224 C.3       1 ****        0.0000 
     47 H          -4.4161    1.5846    1.0732 H         1 ****        0.0000 
     48 C          -4.5841    0.8875   -0.9349 C.3       1 ****        0.0000 
     49 C          -3.9497    2.1128   -1.5476 C.3       1 ****        0.0000 
     50 O          -4.1133    2.4274   -2.6835 O.3       1 ****        0.0000 
     51 C          -2.9613    2.9202   -0.7206 C.3       1 ****        0.0000 
     52 H          -2.8357    3.8094   -1.3502 H         1 ****        0.0000 
     53 H          -3.4498    3.3430    0.1661 H         1 ****        0.0000 
     54 N          -1.6190    2.3015   -0.4164 N.3       1 ****        0.0000 
     55 H          -1.4017    1.3306   -0.6070 H         1 ****        0.0000 
     56 C          -0.5117    2.9052    0.1058 C.3       1 ****        0.0000 
     57 O          -0.5187    4.1235    0.3202 O.3       1 ****        0.0000 
     58 C           0.7885    2.0353    0.2513 C.3       1 ****        0.0000 
     59 H           1.1014    2.1107    1.2995 H         1 ****        0.0000 
     60 C           1.9617    2.7849   -0.4290 C.3       1 ****        0.0000 
     61 H           2.9816    2.4854   -0.1542 H         1 ****        0.0000 
     62 H           1.8017    3.8055   -0.0594 H         1 ****        0.0000 
     63 C           1.8656    3.0543   -1.9197 C.3       1 ****        0.0000 
     64 H           1.7836    2.0924   -2.4410 H         1 ****        0.0000 
     65 H           0.9160    3.5034   -2.2377 H         1 ****        0.0000 
     66 C           2.9164    3.8937   -2.5709 C.3       1 ****        0.0000 
     67 C           3.0172    3.6696   -4.1006 C.3       1 ****        0.0000 
     68 H           3.7246    2.8869   -4.4007 H         1 ****        0.0000 
     69 H           2.0912    3.3949   -4.6216 H         1 ****        0.0000 
     70 H           3.3069    4.6155   -4.5749 H         1 ****        0.0000 
     71 H           3.8516    3.6162   -2.0689 H         1 ****        0.0000 
     72 C           2.6856    5.3281   -2.3055 C.3       1 ****        0.0000 
     73 H           2.5007    5.5312   -1.2425 H         1 ****        0.0000 
     74 H           3.4465    6.0704   -2.5736 H         1 ****        0.0000 
     75 H           1.7269    5.5956   -2.7666 H         1 ****        0.0000 
@<TRIPOS>BOND
     1    1    2 1    
     2    1    3 1    
     3    1    4 1    
     4    1    5 1    
     5    5    6 1    
     6    5   10 1    
     7    5   14 1    
     8    6    7 1    
     9    6    8 1    
    10    6    9 1    
    11   10   11 1    
    12   10   12 1    
    13   10   13 1    
    14   14   15 1    
    15   15   16 1    
    16   15   17 1    
    17   17   18 1    
    18   17   19 1    
    19   19   20 1    
    20   19   24 1    
    21   19   25 1    
    22   20   21 1    
    23   20   23 1    
    24   21   22 1    
    25   21   58 1    
    26   25   26 1    
    27   25   27 1    
    28   25   28 1    
    29   28   29 1    
    30   28   33 1    
    31   29   30 1    
    32   29   32 1    
    33   30   31 1    
    34   30   37 1    
    35   33   34 1    
    36   33   35 1    
    37   35   36 1    
    38   35   37 1    
    39   37   38 1    
    40   38   39 1    
    41   39   40 1    
    42   39   44 1    
    43   40   41 1    
    44   40   43 1    
    45   41   42 1    
    46   41   48 1    
    47   44   45 1    
    48   44   46 1    
    49   46   47 1    
    50   46   48 1    
    51   48   49 1    
    52   49   50 1    
    53   49   51 1    
    54   51   52 1    
    55   51   53 1    
    56   51   54 1    
    57   54   55 1    
    58   54   56 1    
    59   56   57 1    
    60   56   58 1    
    61   58   59 1    
    62   58   60 1    
    63   60   61 1    
    64   60   62 1    
    65   60   63 1    
    66   63   64 1    
    67   63   65 1    
    68   63   66 1    
    69   66   67 1    
    70   66   71 1    
    71   66   72 1    
    72   67   68 1    
    73   67   69 1    
    74   67   70 1    
    75   72   73 1    
    76   72   74 1    
    77   72   75 1    
@<TRIPOS>SUBSTRUCTURE
     1 ****        1 GROUP             0       ****    0 ROOT    
@<TRIPOS>MOLECULE
Cpd1-2500
75   77    1
SMALL
USER_CHARGES


@<TRIPOS>ATOM
      1 C           5.4250   -2.2970   -2.7198 C.3       1 ****        0.0000 
      2 H           6.3839   -2.3890   -3.2440 H         1 ****        0.0000 
      3 H           4.5664   -2.6839   -3.2834 H         1 ****        0.0000 
      4 H           5.3306   -1.2193   -2.5370 H         1 ****        0.0000 
      5 C           5.5463   -3.0002   -1.3444 C.3       1 ****        0.0000 
      6 C           6.7693   -2.5025   -0.6494 C.3       1 ****        0.0000 
      7 H           6.6737   -1.4316   -0.4303 H         1 ****        0.0000 
      8 H           7.0638   -2.9641    0.3005 H         1 ****        0.0000 
      9 H           7.6734   -2.5649   -1.2677 H         1 ****        0.0000 
     10 C           5.4881   -4.5034   -1.4851 C.3       1 ****        0.0000 
     11 H           5.2110   -4.9443   -0.5199 H         1 ****        0.0000 
     12 H           4.7429   -4.8782   -2.1975 H         1 ****        0.0000 
     13 H           6.4946   -4.8119   -1.7918 H         1 ****        0.0000 
     14 O           4.5647   -2.5377   -0.4483 O.3       1 ****        0.0000 
     15 C           3.2450   -2.7912   -0.6546 C.3       1 ****        0.0000 
     16 O           2.6590   -3.4201   -1.5849 O.3       1 ****        0.0000 
     17 N           2.6100   -2.0309    0.2170 N.3       1 ****        0.0000 
     18 H           3.2320   -1.4202    0.7324 H         1 ****        0.0000 
     19 C           1.1169   -1.9956    0.4155 C.3       1 ****        0.0000 
     20 C           0.5533   -0.6509    0.9612 C.3       1 ****        0.0000 
     21 N           0.4625    0.3692   -0.0209 N.3       1 ****        0.0000 
     22 H           0.6333    0.1191   -0.9883 H         1 ****        0.0000 
     23 O           0.2634   -0.3744    2.1574 O.3       1 ****        0.0000 
     24 H           0.6070   -2.0420   -0.5543 H         1 ****        0.0000 
     25 C           0.6763   -3.1927    1.2048 C.3       1 ****        0.0000 
     26 H           0.9714   -3.0274    2.2477 H         1 ****        0.0000 
     27 H           1.1941   -4.0938    0.8539 H         1 ****        0.0000 
     28 C          -0.8571   -3.3591    1.1072 C.3       1 ****        0.0000 
     29 C          -1.7708   -3.0845    2.1179 C.3       1 ****        0.0000 
     30 C          -3.1450   -2.9053    1.8978 C.3       1 ****        0.0000 
     31 H          -3.8607   -2.5790    2.6475 H         1 ****        0.0000 
     32 H          -1.3760   -2.8405    3.1002 H         1 ****        0.0000 
     33 C          -1.3639   -3.6740   -0.1215 C.3       1 ****        0.0000 
     34 H          -0.6571   -3.9831   -0.8849 H         1 ****        0.0000 
     35 C          -2.7166   -3.4590   -0.4106 C.3       1 ****        0.0000 
     36 H          -3.1377   -3.6554   -1.3919 H         1 ****        0.0000 
     37 C          -3.5909   -3.0092    0.6201 C.3       1 ****        0.0000 
     38 O          -4.8508   -2.6110    0.2993 O.3       1 ****        0.0000 
     39 C          -5.0851   -1.3698   -0.3020 C.3       1 ****        0.0000 
     40 C          -4.2948   -0.9194   -1.4226 C.3       1 ****        0.0000 
     41 C          -4.0642    0.4548   -1.5856 C.3       1 ****        0.0000 
     42 H          -3.3228    0.7677   -2.3152 H         1 ****        0.0000 
     43 H          -3.7465   -1.6079   -2.0581 H         1 ****        0.0000 
     44 C          -5.7233   -0.3993    0.4945 C.3       1 ****        0.0000 
     45 H          -6.2031   -0.6424    1.4368 H         1 ****        0.0000 
     46 C          -5.6046    0.9285    0.1819 C.3       1 ****        0.0000 
     47 H          -6.0983    1.6336    0.8447 H         1 ****        0.0000 
     48 C          -4.8436    1.3922   -0.8658 C.3       1 ****        0.0000 
     49 C          -4.5285    2.8325   -0.8458 C.3       1 ****        0.0000 
     50 O          -5.3464    3.6783   -0.4228 O.3       1 ****        0.0000 
     51 C          -3.1441    3.2545   -1.3116 C.3       1 ****        0.0000 
     52 H          -2.8961    2.9245   -2.3279 H         1 ****        0.0000 
     53 H          -3.0590    4.3446   -1.3930 H         1 ****        0.0000 
     54 N          -2.0829    2.7172   -0.4108 N.3       1 ****        0.0000 
     55 H          -1.9190    3.0080    0.5455 H         1 ****        0.0000 
     56 C          -0.9285    2.1148   -0.8830 C.3       1 ****        0.0000 
     57 O          -0.8912    1.8127   -2.0315 O.3       1 ****        0.0000 
     58 C           0.1970    1.8376    0.1071 C.3       1 ****        0.0000 
     59 H          -0.0840    2.0548    1.1442 H         1 ****        0.0000 
     60 C           1.5090    2.6432   -0.1692 C.3       1 ****        0.0000 
     61 H           1.7422    2.6470   -1.2405 H         1 ****        0.0000 
     62 H           2.2838    2.1853    0.4582 H         1 ****        0.0000 
     63 C           1.3966    4.1305    0.4588 C.3       1 ****        0.0000 
     64 H           0.4716    4.6469    0.1739 H         1 ****        0.0000 
     65 H           1.2973    3.9690    1.5388 H         1 ****        0.0000 
     66 C           2.6393    5.0035    0.0426 C.3       1 ****        0.0000 
     67 C           2.2863    6.5059    0.0514 C.3       1 ****        0.0000 
     68 H           2.9963    7.1393   -0.4934 H         1 ****        0.0000 
     69 H           1.2847    6.6785   -0.3638 H         1 ****        0.0000 
     70 H           2.2625    6.7918    1.1091 H         1 ****        0.0000 
     71 H           2.9108    4.7067   -0.9777 H         1 ****        0.0000 
     72 C           3.9125    4.7987    0.8568 C.3       1 ****        0.0000 
     73 H           4.5569    5.5973    0.4681 H         1 ****        0.0000 
     74 H           3.6898    5.0173    1.9092 H         1 ****        0.0000 
     75 H           4.2170    3.7676    0.6458 H         1 ****        0.0000 
@<TRIPOS>BOND
     1    1    2 1    
     2    1    3 1    
     3    1    4 1    
     4    1    5 1    
     5    5    6 1    
     6    5   10 1    
     7    5   14 1    
     8    6    7 1    
     9    6    8 1    
    10    6    9 1    
    11   10   11 1    
    12   10   12 1    
    13   10   13 1    
    14   14   15 1    
    15   15   16 1    
    16   15   17 1    
    17   17   18 1    
    18   17   19 1    
    19   19   20 1    
    20   19   24 1    
    21   19   25 1    
    22   20   21 1    
    23   20   23 1    
    24   21   22 1    
    25   21   58 1    
    26   25   26 1    
    27   25   27 1    
    28   25   28 1    
    29   28   29 1    
    30   28   33 1    
    31   29   30 1    
    32   29   32 1    
    33   30   31 1    
    34   30   37 1    
    35   33   34 1    
    36   33   35 1    
    37   35   36 1    
    38   35   37 1    
    39   37   38 1    
    40   38   39 1    
    41   39   40 1    
    42   39   44 1    
    43   40   41 1    
    44   40   43 1    
    45   41   42 1    
    46   41   48 1    
    47   44   45 1    
    48   44   46 1    
    49   46   47 1    
    50   46   48 1    
    51   48   49 1    
    52   49   50 1    
    53   49   51 1    
    54   51   52 1    
    55   51   53 1    
    56   51   54 1    
    57   54   55 1    
    58   54   56 1    
    59   56   57 1    
    60   56   58 1    
    61   58   59 1    
    62   58   60 1    
    63   60   61 1    
    64   60   62 1    
    65   60   63 1    
    66   63   64 1    
    67   63   65 1    
    68   63   66 1    
    69   66   67 1    
    70   66   71 1    
    71   66   72 1    
    72   67   68 1    
    73   67   69 1    
    74   67   70 1    
    75   72   73 1    
    76   72   74 1    
    77   72   75 1    
@<TRIPOS>SUBSTRUCTURE
     1 ****        1 GROUP             0       ****    0 ROOT    
@<TRIPOS>MOLECULE
Cpd1-3000
75   77    1
SMALL
USER_CHARGES


@<TRIPOS>ATOM
      1 C           5.2753    0.4786   -2.2383 C.3       1 ****        0.0000 
      2 H           4.5858    1.0404   -2.8809 H         1 ****        0.0000 
      3 H           5.1918    0.9554   -1.2543 H         1 ****        0.0000 
      4 H           6.2024    0.8701   -2.6759 H         1 ****        0.0000 
      5 C           5.1595   -1.0288   -2.2302 C.3       1 ****        0.0000 
      6 C           6.5217   -1.5050   -1.6796 C.3       1 ****        0.0000 
      7 H           6.7754   -0.9094   -0.7937 H         1 ****        0.0000 
      8 H           6.4880   -2.5573   -1.3700 H         1 ****        0.0000 
      9 H           7.3107   -1.3513   -2.4262 H         1 ****        0.0000 
     10 C           4.7831   -1.6917   -3.5874 C.3       1 ****        0.0000 
     11 H           5.4642   -1.3963   -4.3947 H         1 ****        0.0000 
     12 H           4.6787   -2.7782   -3.4823 H         1 ****        0.0000 
     13 H           3.8326   -1.1970   -3.8211 H         1 ****        0.0000 
     14 O           4.2909   -1.4822   -1.2046 O.3       1 ****        0.0000 
     15 C           2.9908   -1.1528   -1.2836 C.3       1 ****        0.0000 
     16 O           2.4375   -0.4696   -2.1437 O.3       1 ****        0.0000 
     17 N           2.3875   -1.8420   -0.3198 N.3       1 ****        0.0000 
     18 H           2.9582   -2.2907    0.3880 H         1 ****        0.0000 
     19 C           0.8984   -1.8255   -0.0870 C.3       1 ****        0.0000 
     20 C           0.3484   -0.4748    0.5024 C.3       1 ****        0.0000 
     21 N           0.7110    0.6911   -0.1825 N.3       1 ****        0.0000 
     22 H           1.2715    0.5645   -1.0169 H         1 ****        0.0000 
     23 O          -0.3207   -0.3895    1.5443 O.3       1 ****        0.0000 
     24 H           0.4643   -1.8623   -1.0933 H         1 ****        0.0000 
     25 C           0.5447   -3.0977    0.7801 C.3       1 ****        0.0000 
     26 H           0.9905   -3.0836    1.7819 H         1 ****        0.0000 
     27 H           1.0017   -3.9370    0.2412 H         1 ****        0.0000 
     28 C          -0.9673   -3.2862    0.7747 C.3       1 ****        0.0000 
     29 C          -1.6689   -3.1022    2.0202 C.3       1 ****        0.0000 
     30 C          -3.0615   -3.0809    1.9952 C.3       1 ****        0.0000 
     31 H          -3.5940   -3.0649    2.9410 H         1 ****        0.0000 
     32 H          -1.0499   -3.0061    2.9078 H         1 ****        0.0000 
     33 C          -1.7346   -3.5178   -0.3565 C.3       1 ****        0.0000 
     34 H          -1.0876   -3.7149   -1.2056 H         1 ****        0.0000 
     35 C          -3.1481   -3.3073   -0.4266 C.3       1 ****        0.0000 
     36 H          -3.7666   -3.4422   -1.3093 H         1 ****        0.0000 
     37 C          -3.7979   -3.0884    0.7810 C.3       1 ****        0.0000 
     38 O          -5.1496   -2.6744    0.8237 O.3       1 ****        0.0000 
     39 C          -5.2674   -1.4732    0.2150 C.3       1 ****        0.0000 
     40 C          -5.3260   -1.2971   -1.1083 C.3       1 ****        0.0000 
     41 C          -4.9800   -0.0769   -1.8121 C.3       1 ****        0.0000 
     42 H          -4.9471   -0.0200   -2.8964 H         1 ****        0.0000 
     43 H          -5.7085   -2.1261   -1.6977 H         1 ****        0.0000 
     44 C          -4.8987   -0.3569    0.9904 C.3       1 ****        0.0000 
     45 H          -4.8367   -0.5451    2.0588 H         1 ****        0.0000 
     46 C          -4.6376    0.9176    0.4443 C.3       1 ****        0.0000 
     47 H          -4.3894    1.7956    1.0331 H         1 ****        0.0000 
     48 C          -4.7371    1.0689   -0.9715 C.3       1 ****        0.0000 
     49 C          -4.1673    2.2925   -1.6274 C.3       1 ****        0.0000 
     50 O          -4.5113    2.6732   -2.7453 O.3       1 ****        0.0000 
     51 C          -2.9547    3.0920   -0.9353 C.3       1 ****        0.0000 
     52 H          -2.7354    3.9774   -1.5445 H         1 ****        0.0000 
     53 H          -3.3228    3.4537    0.0326 H         1 ****        0.0000 
     54 N          -1.7285    2.2200   -0.7544 N.3       1 ****        0.0000 
     55 H          -1.5187    1.4654   -1.3979 H         1 ****        0.0000 
     56 C          -0.7274    2.6958    0.0973 C.3       1 ****        0.0000 
     57 O          -0.8562    3.7685    0.5737 O.3       1 ****        0.0000 
     58 C           0.5754    2.0171    0.3946 C.3       1 ****        0.0000 
     59 H           0.4359    1.9497    1.4798 H         1 ****        0.0000 
     60 C           1.7060    3.0182    0.0946 C.3       1 ****        0.0000 
     61 H           2.7124    2.6107    0.2446 H         1 ****        0.0000 
     62 H           1.5492    3.7896    0.8581 H         1 ****        0.0000 
     63 C           1.7834    3.5617   -1.3565 C.3       1 ****        0.0000 
     64 H           1.9794    2.6750   -1.9722 H         1 ****        0.0000 
     65 H           0.8470    3.9631   -1.7627 H         1 ****        0.0000 
     66 C           2.9221    4.5677   -1.5429 C.3       1 ****        0.0000 
     67 C           4.2816    3.9431   -1.5991 C.3       1 ****        0.0000 
     68 H           5.0104    4.7519   -1.7279 H         1 ****        0.0000 
     69 H           4.5847    3.3841   -0.7063 H         1 ****        0.0000 
     70 H           4.3350    3.3424   -2.5160 H         1 ****        0.0000 
     71 H           3.0442    5.2938   -0.7278 H         1 ****        0.0000 
     72 C           2.5534    5.4346   -2.8127 C.3       1 ****        0.0000 
     73 H           2.3888    4.7522   -3.6564 H         1 ****        0.0000 
     74 H           1.7013    6.1169   -2.7035 H         1 ****        0.0000 
     75 H           3.4148    6.0391   -3.1206 H         1 ****        0.0000 
@<TRIPOS>BOND
     1    1    2 1    
     2    1    3 1    
     3    1    4 1    
     4    1    5 1    
     5    5    6 1    
     6    5   10 1    
     7    5   14 1    
     8    6    7 1    
     9    6    8 1    
    10    6    9 1    
    11   10   11 1    
    12   10   12 1    
    13   10   13 1    
    14   14   15 1    
    15   15   16 1    
    16   15   17 1    
    17   17   18 1    
    18   17   19 1    
    19   19   20 1    
    20   19   24 1    
    21   19   25 1    
    22   20   21 1    
    23   20   23 1    
    24   21   22 1    
    25   21   58 1    
    26   25   26 1    
    27   25   27 1    
    28   25   28 1    
    29   28   29 1    
    30   28   33 1    
    31   29   30 1    
    32   29   32 1    
    33   30   31 1    
    34   30   37 1    
    35   33   34 1    
    36   33   35 1    
    37   35   36 1    
    38   35   37 1    
    39   37   38 1    
    40   38   39 1    
    41   39   40 1    
    42   39   44 1    
    43   40   41 1    
    44   40   43 1    
    45   41   42 1    
    46   41   48 1    
    47   44   45 1    
    48   44   46 1    
    49   46   47 1    
    50   46   48 1    
    51   48   49 1    
    52   49   50 1    
    53   49   51 1    
    54   51   52 1    
    55   51   53 1    
    56   51   54 1    
    57   54   55 1    
    58   54   56 1    
    59   56   57 1    
    60   56   58 1    
    61   58   59 1    
    62   58   60 1    
    63   60   61 1    
    64   60   62 1    
    65   60   63 1    
    66   63   64 1    
    67   63   65 1    
    68   63   66 1    
    69   66   67 1    
    70   66   71 1    
    71   66   72 1    
    72   67   68 1    
    73   67   69 1    
    74   67   70 1    
    75   72   73 1    
    76   72   74 1    
    77   72   75 1    
@<TRIPOS>SUBSTRUCTURE
     1 ****        1 GROUP             0       ****    0 ROOT    
@<TRIPOS>MOLECULE
Cpd1-3500
75   77    1
SMALL
USER_CHARGES


@<TRIPOS>ATOM
      1 C           4.8305    0.0857   -3.1192 C.3       1 ****        0.0000 
      2 H           3.9217    0.1107   -3.7345 H         1 ****        0.0000 
      3 H           4.6782    0.8552   -2.3528 H         1 ****        0.0000 
      4 H           5.7046    0.3228   -3.7386 H         1 ****        0.0000 
      5 C           4.9260   -1.3247   -2.4099 C.3       1 ****        0.0000 
      6 C           6.3241   -1.4977   -1.7740 C.3       1 ****        0.0000 
      7 H           6.4945   -2.5095   -1.3852 H         1 ****        0.0000 
      8 H           7.1213   -1.2921   -2.4993 H         1 ****        0.0000 
      9 H           6.4886   -0.7315   -1.0055 H         1 ****        0.0000 
     10 C           4.6433   -2.4677   -3.3554 C.3       1 ****        0.0000 
     11 H           5.4279   -2.5538   -4.1170 H         1 ****        0.0000 
     12 H           4.6294   -3.4830   -2.9423 H         1 ****        0.0000 
     13 H           3.6968   -2.3301   -3.8929 H         1 ****        0.0000 
     14 O           4.0516   -1.4926   -1.2930 O.3       1 ****        0.0000 
     15 C           2.7501   -1.2512   -1.3434 C.3       1 ****        0.0000 
     16 O           2.1390   -0.4832   -2.0272 O.3       1 ****        0.0000 
     17 N           2.2281   -1.7699   -0.1857 N.3       1 ****        0.0000 
     18 H           2.8180   -2.4360    0.2977 H         1 ****        0.0000 
     19 C           0.7891   -1.8297    0.1314 C.3       1 ****        0.0000 
     20 C           0.3182   -0.4271    0.7507 C.3       1 ****        0.0000 
     21 N           0.6085    0.5900   -0.0556 N.3       1 ****        0.0000 
     22 H           1.0053    0.3577   -0.9575 H         1 ****        0.0000 
     23 O          -0.1931   -0.3165    1.8268 O.3       1 ****        0.0000 
     24 H           0.2122   -1.9198   -0.7973 H         1 ****        0.0000 
     25 C           0.4957   -3.0371    0.9621 C.3       1 ****        0.0000 
     26 H           0.7338   -2.9457    2.0288 H         1 ****        0.0000 
     27 H           1.0911   -3.8964    0.6315 H         1 ****        0.0000 
     28 C          -1.0181   -3.3842    1.0558 C.3       1 ****        0.0000 
     29 C          -1.8255   -2.8255    2.0929 C.3       1 ****        0.0000 
     30 C          -3.2459   -2.7723    1.8402 C.3       1 ****        0.0000 
     31 H          -3.8861   -2.2107    2.5156 H         1 ****        0.0000 
     32 H          -1.2877   -2.1308    2.7304 H         1 ****        0.0000 
     33 C          -1.5456   -4.1368   -0.0222 C.3       1 ****        0.0000 
     34 H          -0.8989   -4.5118   -0.8103 H         1 ****        0.0000 
     35 C          -2.9410   -4.0860   -0.1759 C.3       1 ****        0.0000 
     36 H          -3.3328   -4.5828   -1.0582 H         1 ****        0.0000 
     37 C          -3.7965   -3.3377    0.7279 C.3       1 ****        0.0000 
     38 O          -5.0332   -2.9177    0.3146 O.3       1 ****        0.0000 
     39 C          -5.1046   -1.5715   -0.1180 C.3       1 ****        0.0000 
     40 C          -4.3838   -1.1743   -1.2521 C.3       1 ****        0.0000 
     41 C          -4.2555    0.2313   -1.6323 C.3       1 ****        0.0000 
     42 H          -3.6932    0.4517   -2.5345 H         1 ****        0.0000 
     43 H          -3.8721   -1.9801   -1.7690 H         1 ****        0.0000 
     44 C          -5.6159   -0.5141    0.7137 C.3       1 ****        0.0000 
     45 H          -6.1510   -0.8006    1.6133 H         1 ****        0.0000 
     46 C          -5.5110    0.8465    0.3456 C.3       1 ****        0.0000 
     47 H          -5.8387    1.5981    1.0580 H         1 ****        0.0000 
     48 C          -4.7704    1.2514   -0.7700 C.3       1 ****        0.0000 
     49 C          -4.4242    2.7003   -0.9782 C.3       1 ****        0.0000 
     50 O          -5.2227    3.6115   -0.5855 O.3       1 ****        0.0000 
     51 C          -2.9511    3.0609   -1.4063 C.3       1 ****        0.0000 
     52 H          -2.9200    2.7958   -2.4704 H         1 ****        0.0000 
     53 H          -2.7810    4.1441   -1.3470 H         1 ****        0.0000 
     54 N          -1.8540    2.4525   -0.6086 N.3       1 ****        0.0000 
     55 H          -2.1397    1.6874   -0.0097 H         1 ****        0.0000 
     56 C          -0.4913    2.6582   -0.7735 C.3       1 ****        0.0000 
     57 O          -0.0719    3.2665   -1.7434 O.3       1 ****        0.0000 
     58 C           0.4808    2.0497    0.2897 C.3       1 ****        0.0000 
     59 H          -0.0334    2.0527    1.2588 H         1 ****        0.0000 
     60 C           1.8656    2.7713    0.4653 C.3       1 ****        0.0000 
     61 H           2.2773    2.8471   -0.5481 H         1 ****        0.0000 
     62 H           2.5916    2.1023    0.9405 H         1 ****        0.0000 
     63 C           1.7113    4.0749    1.2289 C.3       1 ****        0.0000 
     64 H           1.1367    4.6637    0.5033 H         1 ****        0.0000 
     65 H           1.1211    3.9217    2.1400 H         1 ****        0.0000 
     66 C           3.0713    4.7229    1.6126 C.3       1 ****        0.0000 
     67 C           3.9795    5.1202    0.4473 C.3       1 ****        0.0000 
     68 H           4.1798    4.2583   -0.1995 H         1 ****        0.0000 
     69 H           3.5625    5.8249   -0.2833 H         1 ****        0.0000 
     70 H           4.9050    5.6277    0.7459 H         1 ****        0.0000 
     71 H           3.4781    3.9488    2.2754 H         1 ****        0.0000 
     72 C           2.9502    5.9435    2.4744 C.3       1 ****        0.0000 
     73 H           2.3739    6.7516    2.0072 H         1 ****        0.0000 
     74 H           2.2946    5.6848    3.3139 H         1 ****        0.0000 
     75 H           3.9519    6.2926    2.7515 H         1 ****        0.0000 
@<TRIPOS>BOND
     1    1    2 1    
     2    1    3 1    
     3    1    4 1    
     4    1    5 1    
     5    5    6 1    
     6    5   10 1    
     7    5   14 1    
     8    6    7 1    
     9    6    8 1    
    10    6    9 1    
    11   10   11 1    
    12   10   12 1    
    13   10   13 1    
    14   14   15 1    
    15   15   16 1    
    16   15   17 1    
    17   17   18 1    
    18   17   19 1    
    19   19   20 1    
    20   19   24 1    
    21   19   25 1    
    22   20   21 1    
    23   20   23 1    
    24   21   22 1    
    25   21   58 1    
    26   25   26 1    
    27   25   27 1    
    28   25   28 1    
    29   28   29 1    
    30   28   33 1    
    31   29   30 1    
    32   29   32 1    
    33   30   31 1    
    34   30   37 1    
    35   33   34 1    
    36   33   35 1    
    37   35   36 1    
    38   35   37 1    
    39   37   38 1    
    40   38   39 1    
    41   39   40 1    
    42   39   44 1    
    43   40   41 1    
    44   40   43 1    
    45   41   42 1    
    46   41   48 1    
    47   44   45 1    
    48   44   46 1    
    49   46   47 1    
    50   46   48 1    
    51   48   49 1    
    52   49   50 1    
    53   49   51 1    
    54   51   52 1    
    55   51   53 1    
    56   51   54 1    
    57   54   55 1    
    58   54   56 1    
    59   56   57 1    
    60   56   58 1    
    61   58   59 1    
    62   58   60 1    
    63   60   61 1    
    64   60   62 1    
    65   60   63 1    
    66   63   64 1    
    67   63   65 1    
    68   63   66 1    
    69   66   67 1    
    70   66   71 1    
    71   66   72 1    
    72   67   68 1    
    73   67   69 1    
    74   67   70 1    
    75   72   73 1    
    76   72   74 1    
    77   72   75 1    
@<TRIPOS>SUBSTRUCTURE
     1 ****        1 GROUP             0       ****    0 ROOT    
@<TRIPOS>MOLECULE
Cpd1-4000
75   77    1
SMALL
USER_CHARGES


@<TRIPOS>ATOM
      1 C           4.2975    1.1039   -3.4097 C.3       1 ****        0.0000 
      2 H           4.5728    1.5825   -4.3580 H         1 ****        0.0000 
      3 H           3.4293    1.6037   -2.9611 H         1 ****        0.0000 
      4 H           5.1782    1.2488   -2.7729 H         1 ****        0.0000 
      5 C           4.2354   -0.4636   -3.5063 C.3       1 ****        0.0000 
      6 C           5.5912   -1.1067   -3.6793 C.3       1 ****        0.0000 
      7 H           6.3427   -0.6077   -3.0546 H         1 ****        0.0000 
      8 H           5.5281   -2.1757   -3.4437 H         1 ****        0.0000 
      9 H           5.8941   -1.2024   -4.7299 H         1 ****        0.0000 
     10 C           3.3482   -0.9787   -4.7119 C.3       1 ****        0.0000 
     11 H           3.9868   -0.8902   -5.5981 H         1 ****        0.0000 
     12 H           2.9883   -2.0151   -4.6896 H         1 ****        0.0000 
     13 H           2.4578   -0.3492   -4.8327 H         1 ****        0.0000 
     14 O           3.6862   -1.1664   -2.3415 O.3       1 ****        0.0000 
     15 C           2.3438   -1.0791   -1.9953 C.3       1 ****        0.0000 
     16 O           1.5628   -0.3109   -2.4922 O.3       1 ****        0.0000 
     17 N           2.0903   -1.7222   -0.8984 N.3       1 ****        0.0000 
     18 H           2.8348   -2.3783   -0.6931 H         1 ****        0.0000 
     19 C           0.8442   -1.7833   -0.1318 C.3       1 ****        0.0000 
     20 C           0.4345   -0.5618    0.7728 C.3       1 ****        0.0000 
     21 N           0.4047    0.5891   -0.0155 N.3       1 ****        0.0000 
     22 H           0.7785    0.4821   -0.9518 H         1 ****        0.0000 
     23 O           0.0497   -0.5468    1.9372 O.3       1 ****        0.0000 
     24 H           0.1353   -1.5438   -0.9342 H         1 ****        0.0000 
     25 C           0.4410   -3.1792    0.4260 C.3       1 ****        0.0000 
     26 H           1.0075   -3.4074    1.3368 H         1 ****        0.0000 
     27 H           0.7706   -4.0072   -0.2141 H         1 ****        0.0000 
     28 C          -1.0859   -3.2709    0.5903 C.3       1 ****        0.0000 
     29 C          -1.6278   -2.9344    1.8365 C.3       1 ****        0.0000 
     30 C          -2.9977   -2.9357    2.0460 C.3       1 ****        0.0000 
     31 H          -3.4770   -2.5530    2.9423 H         1 ****        0.0000 
     32 H          -0.9522   -2.7607    2.6674 H         1 ****        0.0000 
     33 C          -1.8593   -3.5981   -0.5073 C.3       1 ****        0.0000 
     34 H          -1.3969   -3.6426   -1.4901 H         1 ****        0.0000 
     35 C          -3.2189   -3.5374   -0.2856 C.3       1 ****        0.0000 
     36 H          -3.9475   -3.4819   -1.0887 H         1 ****        0.0000 
     37 C          -3.7900   -3.2216    0.9550 C.3       1 ****        0.0000 
     38 O          -5.0258   -2.6098    0.9088 O.3       1 ****        0.0000 
     39 C          -5.0282   -1.3842    0.2690 C.3       1 ****        0.0000 
     40 C          -5.5274   -1.2522   -1.0724 C.3       1 ****        0.0000 
     41 C          -5.2238   -0.0518   -1.7055 C.3       1 ****        0.0000 
     42 H          -5.4865    0.0227   -2.7560 H         1 ****        0.0000 
     43 H          -6.1135   -2.0597   -1.5014 H         1 ****        0.0000 
     44 C          -4.3755   -0.3198    0.9345 C.3       1 ****        0.0000 
     45 H          -3.9479   -0.5520    1.9056 H         1 ****        0.0000 
     46 C          -4.2260    0.9311    0.3803 C.3       1 ****        0.0000 
     47 H          -3.7229    1.7023    0.9557 H         1 ****        0.0000 
     48 C          -4.5409    1.0546   -1.0323 C.3       1 ****        0.0000 
     49 C          -4.1511    2.2944   -1.7936 C.3       1 ****        0.0000 
     50 O          -4.4222    2.4445   -2.9853 O.3       1 ****        0.0000 
     51 C          -3.0663    3.1772   -1.1372 C.3       1 ****        0.0000 
     52 H          -2.7340    3.9792   -1.8066 H         1 ****        0.0000 
     53 H          -3.3630    3.6876   -0.2112 H         1 ****        0.0000 
     54 N          -1.8469    2.3960   -0.7766 N.3       1 ****        0.0000 
     55 H          -1.7569    1.4367   -1.0885 H         1 ****        0.0000 
     56 C          -0.9015    2.8383    0.1350 C.3       1 ****        0.0000 
     57 O          -1.0499    3.9383    0.5374 O.3       1 ****        0.0000 
     58 C           0.2281    1.9116    0.6444 C.3       1 ****        0.0000 
     59 H          -0.0303    1.6976    1.6883 H         1 ****        0.0000 
     60 C           1.5142    2.6313    0.6042 C.3       1 ****        0.0000 
     61 H           1.4790    3.6836    0.9102 H         1 ****        0.0000 
     62 H           1.7843    2.7777   -0.4481 H         1 ****        0.0000 
     63 C           2.5868    1.8318    1.3909 C.3       1 ****        0.0000 
     64 H           2.0891    1.5565    2.3291 H         1 ****        0.0000 
     65 H           2.6497    0.8526    0.9017 H         1 ****        0.0000 
     66 C           3.9801    2.4693    1.5227 C.3       1 ****        0.0000 
     67 C           4.7395    1.9036    2.6938 C.3       1 ****        0.0000 
     68 H           4.2329    2.1059    3.6462 H         1 ****        0.0000 
     69 H           4.7937    0.8096    2.6370 H         1 ****        0.0000 
     70 H           5.7494    2.3335    2.6798 H         1 ****        0.0000 
     71 H           3.9250    3.5463    1.7215 H         1 ****        0.0000 
     72 C           4.8012    2.3698    0.2899 C.3       1 ****        0.0000 
     73 H           5.0560    1.3220    0.0898 H         1 ****        0.0000 
     74 H           4.1963    2.7617   -0.5374 H         1 ****        0.0000 
     75 H           5.7292    2.9392    0.4200 H         1 ****        0.0000 
@<TRIPOS>BOND
     1    1    2 1    
     2    1    3 1    
     3    1    4 1    
     4    1    5 1    
     5    5    6 1    
     6    5   10 1    
     7    5   14 1    
     8    6    7 1    
     9    6    8 1    
    10    6    9 1    
    11   10   11 1    
    12   10   12 1    
    13   10   13 1    
    14   14   15 1    
    15   15   16 1    
    16   15   17 1    
    17   17   18 1    
    18   17   19 1    
    19   19   20 1    
    20   19   24 1    
    21   19   25 1    
    22   20   21 1    
    23   20   23 1    
    24   21   22 1    
    25   21   58 1    
    26   25   26 1    
    27   25   27 1    
    28   25   28 1    
    29   28   29 1    
    30   28   33 1    
    31   29   30 1    
    32   29   32 1    
    33   30   31 1    
    34   30   37 1    
    35   33   34 1    
    36   33   35 1    
    37   35   36 1    
    38   35   37 1    
    39   37   38 1    
    40   38   39 1    
    41   39   40 1    
    42   39   44 1    
    43   40   41 1    
    44   40   43 1    
    45   41   42 1    
    46   41   48 1    
    47   44   45 1    
    48   44   46 1    
    49   46   47 1    
    50   46   48 1    
    51   48   49 1    
    52   49   50 1    
    53   49   51 1    
    54   51   52 1    
    55   51   53 1    
    56   51   54 1    
    57   54   55 1    
    58   54   56 1    
    59   56   57 1    
    60   56   58 1    
    61   58   59 1    
    62   58   60 1    
    63   60   61 1    
    64   60   62 1    
    65   60   63 1    
    66   63   64 1    
    67   63   65 1    
    68   63   66 1    
    69   66   67 1    
    70   66   71 1    
    71   66   72 1    
    72   67   68 1    
    73   67   69 1    
    74   67   70 1    
    75   72   73 1    
    76   72   74 1    
    77   72   75 1    
@<TRIPOS>SUBSTRUCTURE
     1 ****        1 GROUP             0       ****    0 ROOT    
@<TRIPOS>MOLECULE
Cpd1-4500
75   77    1
SMALL
USER_CHARGES


@<TRIPOS>ATOM
      1 C           4.3415   -0.0474   -3.5974 C.3       1 ****        0.0000 
      2 H           3.4769    0.1418   -4.2464 H         1 ****        0.0000 
      3 H           4.2208    0.6322   -2.7458 H         1 ****        0.0000 
      4 H           5.2791    0.1349   -4.1375 H         1 ****        0.0000 
      5 C           4.3443   -1.4514   -3.0474 C.3       1 ****        0.0000 
      6 C           5.7519   -1.7491   -2.6194 C.3       1 ****        0.0000 
      7 H           6.0509   -1.1557   -1.7459 H         1 ****        0.0000 
      8 H           5.8454   -2.8078   -2.3491 H         1 ****        0.0000 
      9 H           6.4269   -1.4970   -3.4478 H         1 ****        0.0000 
     10 C           3.8710   -2.5668   -4.0871 C.3       1 ****        0.0000 
     11 H           2.9305   -2.3526   -4.6102 H         1 ****        0.0000 
     12 H           4.7015   -2.6246   -4.8018 H         1 ****        0.0000 
     13 H           3.7453   -3.4304   -3.4220 H         1 ****        0.0000 
     14 O           3.6193   -1.4763   -1.8172 O.3       1 ****        0.0000 
     15 C           2.2758   -1.2118   -1.7425 C.3       1 ****        0.0000 
     16 O           1.5436   -0.6272   -2.5204 O.3       1 ****        0.0000 
     17 N           1.8458   -1.8290   -0.5831 N.3       1 ****        0.0000 
     18 H           2.5975   -1.9651    0.0815 H         1 ****        0.0000 
     19 C           0.4944   -1.8398   -0.1430 C.3       1 ****        0.0000 
     20 C           0.0515   -0.4732    0.5271 C.3       1 ****        0.0000 
     21 N           0.2275    0.6814   -0.2117 N.3       1 ****        0.0000 
     22 H           0.6917    0.5008   -1.0922 H         1 ****        0.0000 
     23 O          -0.4434   -0.4767    1.6304 O.3       1 ****        0.0000 
     24 H          -0.1621   -1.9791   -1.0112 H         1 ****        0.0000 
     25 C           0.4246   -3.1169    0.8370 C.3       1 ****        0.0000 
     26 H           0.9139   -2.8726    1.7875 H         1 ****        0.0000 
     27 H           1.0584   -3.9285    0.4584 H         1 ****        0.0000 
     28 C          -1.0310   -3.5395    0.9442 C.3       1 ****        0.0000 
     29 C          -1.7442   -3.2347    2.1471 C.3       1 ****        0.0000 
     30 C          -3.1678   -3.2414    2.1439 C.3       1 ****        0.0000 
     31 H          -3.7241   -2.8501    2.9910 H         1 ****        0.0000 
     32 H          -1.2527   -2.9468    3.0723 H         1 ****        0.0000 
     33 C          -1.7284   -3.9060   -0.1841 C.3       1 ****        0.0000 
     34 H          -1.1302   -4.0717   -1.0754 H         1 ****        0.0000 
     35 C          -3.0628   -3.7490   -0.2162 C.3       1 ****        0.0000 
     36 H          -3.5276   -3.7759   -1.1980 H         1 ****        0.0000 
     37 C          -3.7789   -3.3608    0.8554 C.3       1 ****        0.0000 
     38 O          -4.9998   -2.8075    0.6012 O.3       1 ****        0.0000 
     39 C          -4.9744   -1.4567    0.1996 C.3       1 ****        0.0000 
     40 C          -5.4780   -1.1646   -1.0638 C.3       1 ****        0.0000 
     41 C          -5.3208    0.1395   -1.5688 C.3       1 ****        0.0000 
     42 H          -5.7602    0.2949   -2.5492 H         1 ****        0.0000 
     43 H          -6.1148   -1.8871   -1.5655 H         1 ****        0.0000 
     44 C          -4.1621   -0.4911    0.9274 C.3       1 ****        0.0000 
     45 H          -3.7723   -0.6070    1.9347 H         1 ****        0.0000 
     46 C          -3.9917    0.7845    0.3512 C.3       1 ****        0.0000 
     47 H          -3.4044    1.5071    0.9107 H         1 ****        0.0000 
     48 C          -4.4948    1.0947   -0.9085 C.3       1 ****        0.0000 
     49 C          -4.1382    2.4388   -1.5120 C.3       1 ****        0.0000 
     50 O          -4.7692    2.7578   -2.5490 O.3       1 ****        0.0000 
     51 C          -2.9805    3.3440   -1.0853 C.3       1 ****        0.0000 
     52 H          -2.6698    4.0514   -1.8638 H         1 ****        0.0000 
     53 H          -3.2049    3.8501   -0.1389 H         1 ****        0.0000 
     54 N          -1.8143    2.5867   -0.6975 N.3       1 ****        0.0000 
     55 H          -1.8941    1.5773   -0.7260 H         1 ****        0.0000 
     56 C          -0.6500    3.0676   -0.1880 C.3       1 ****        0.0000 
     57 O          -0.4004    4.2805   -0.2037 O.3       1 ****        0.0000 
     58 C           0.3698    2.0703    0.2968 C.3       1 ****        0.0000 
     59 H           0.4118    2.0268    1.3921 H         1 ****        0.0000 
     60 C           1.7923    2.5980   -0.1560 C.3       1 ****        0.0000 
     61 H           1.9271    3.6307    0.1876 H         1 ****        0.0000 
     62 H           1.8864    2.6215   -1.2486 H         1 ****        0.0000 
     63 C           2.9700    1.8226    0.5629 C.3       1 ****        0.0000 
     64 H           2.8013    1.7430    1.6431 H         1 ****        0.0000 
     65 H           3.0278    0.7987    0.1729 H         1 ****        0.0000 
     66 C           4.4233    2.3156    0.2083 C.3       1 ****        0.0000 
     67 C           4.8315    3.5222    1.0600 C.3       1 ****        0.0000 
     68 H           5.8696    3.8720    1.0098 H         1 ****        0.0000 
     69 H           4.2460    4.4077    0.7854 H         1 ****        0.0000 
     70 H           4.7249    3.3009    2.1293 H         1 ****        0.0000 
     71 H           4.5125    2.4190   -0.8808 H         1 ****        0.0000 
     72 C           5.4523    1.2129    0.4711 C.3       1 ****        0.0000 
     73 H           5.3182    0.3760   -0.2265 H         1 ****        0.0000 
     74 H           6.4146    1.6596    0.1929 H         1 ****        0.0000 
     75 H           5.6016    1.0240    1.5419 H         1 ****        0.0000 
@<TRIPOS>BOND
     1    1    2 1    
     2    1    3 1    
     3    1    4 1    
     4    1    5 1    
     5    5    6 1    
     6    5   10 1    
     7    5   14 1    
     8    6    7 1    
     9    6    8 1    
    10    6    9 1    
    11   10   11 1    
    12   10   12 1    
    13   10   13 1    
    14   14   15 1    
    15   15   16 1    
    16   15   17 1    
    17   17   18 1    
    18   17   19 1    
    19   19   20 1    
    20   19   24 1    
    21   19   25 1    
    22   20   21 1    
    23   20   23 1    
    24   21   22 1    
    25   21   58 1    
    26   25   26 1    
    27   25   27 1    
    28   25   28 1    
    29   28   29 1    
    30   28   33 1    
    31   29   30 1    
    32   29   32 1    
    33   30   31 1    
    34   30   37 1    
    35   33   34 1    
    36   33   35 1    
    37   35   36 1    
    38   35   37 1    
    39   37   38 1    
    40   38   39 1    
    41   39   40 1    
    42   39   44 1    
    43   40   41 1    
    44   40   43 1    
    45   41   42 1    
    46   41   48 1    
    47   44   45 1    
    48   44   46 1    
    49   46   47 1    
    50   46   48 1    
    51   48   49 1    
    52   49   50 1    
    53   49   51 1    
    54   51   52 1    
    55   51   53 1    
    56   51   54 1    
    57   54   55 1    
    58   54   56 1    
    59   56   57 1    
    60   56   58 1    
    61   58   59 1    
    62   58   60 1    
    63   60   61 1    
    64   60   62 1    
    65   60   63 1    
    66   63   64 1    
    67   63   65 1    
    68   63   66 1    
    69   66   67 1    
    70   66   71 1    
    71   66   72 1    
    72   67   68 1    
    73   67   69 1    
    74   67   70 1    
    75   72   73 1    
    76   72   74 1    
    77   72   75 1    
@<TRIPOS>SUBSTRUCTURE
     1 ****        1 GROUP             0       ****    0 ROOT    
@<TRIPOS>MOLECULE
Cpd1-5000
75   77    1
SMALL
USER_CHARGES


@<TRIPOS>ATOM
      1 C           4.0293   -0.4717   -3.6096 C.3       1 ****        0.0000 
      2 H           3.2578   -0.6878   -4.3576 H         1 ****        0.0000 
      3 H           3.6554    0.2350   -2.8580 H         1 ****        0.0000 
      4 H           4.7592    0.0448   -4.2449 H         1 ****        0.0000 
      5 C           4.7477   -1.6475   -2.8930 C.3       1 ****        0.0000 
      6 C           6.0469   -1.1631   -2.4491 C.3       1 ****        0.0000 
      7 H           6.7332   -1.8890   -1.9937 H         1 ****        0.0000 
      8 H           6.6886   -0.7430   -3.2314 H         1 ****        0.0000 
      9 H           5.9281   -0.3715   -1.6993 H         1 ****        0.0000 
     10 C           4.7599   -2.8639   -3.8526 C.3       1 ****        0.0000 
     11 H           5.2387   -3.7291   -3.3772 H         1 ****        0.0000 
     12 H           3.7536   -3.1935   -4.1394 H         1 ****        0.0000 
     13 H           5.3071   -2.7769   -4.8001 H         1 ****        0.0000 
     14 O           4.0514   -1.8739   -1.6777 O.3       1 ****        0.0000 
     15 C           2.7465   -2.1146   -1.6704 C.3       1 ****        0.0000 
     16 O           2.0271   -2.4059   -2.5811 O.3       1 ****        0.0000 
     17 N           2.2627   -1.9109   -0.4167 N.3       1 ****        0.0000 
     18 H           2.9956   -1.6775    0.2437 H         1 ****        0.0000 
     19 C           0.8426   -1.9254   -0.0405 C.3       1 ****        0.0000 
     20 C           0.4304   -0.6797    0.7834 C.3       1 ****        0.0000 
     21 N           0.2352    0.4465    0.0240 N.3       1 ****        0.0000 
     22 H           0.2691    0.2969   -0.9774 H         1 ****        0.0000 
     23 O           0.3085   -0.6664    2.0514 O.3       1 ****        0.0000 
     24 H           0.2175   -1.8863   -0.9400 H         1 ****        0.0000 
     25 C           0.5280   -3.2768    0.6688 C.3       1 ****        0.0000 
     26 H           0.9454   -3.3930    1.6759 H         1 ****        0.0000 
     27 H           0.7941   -4.1576    0.0710 H         1 ****        0.0000 
     28 C          -0.9616   -3.3597    0.7752 C.3       1 ****        0.0000 
     29 C          -1.5782   -3.1677    2.0267 C.3       1 ****        0.0000 
     30 C          -3.0012   -3.0884    2.0502 C.3       1 ****        0.0000 
     31 H          -3.5928   -2.9672    2.9518 H         1 ****        0.0000 
     32 H          -0.9133   -2.9942    2.8670 H         1 ****        0.0000 
     33 C          -1.6689   -3.4757   -0.4094 C.3       1 ****        0.0000 
     34 H          -1.1456   -3.6536   -1.3447 H         1 ****        0.0000 
     35 C          -3.0342   -3.3244   -0.3826 C.3       1 ****        0.0000 
     36 H          -3.6195   -3.4219   -1.2929 H         1 ****        0.0000 
     37 C          -3.6743   -3.0506    0.8144 C.3       1 ****        0.0000 
     38 O          -4.9138   -2.6440    0.6832 O.3       1 ****        0.0000 
     39 C          -5.1205   -1.3060    0.2625 C.3       1 ****        0.0000 
     40 C          -5.5860   -1.1577   -1.0380 C.3       1 ****        0.0000 
     41 C          -5.3577    0.0937   -1.6145 C.3       1 ****        0.0000 
     42 H          -5.7567    0.2096   -2.6181 H         1 ****        0.0000 
     43 H          -5.9891   -1.9412   -1.6719 H         1 ****        0.0000 
     44 C          -4.5408   -0.2623    0.9797 C.3       1 ****        0.0000 
     45 H          -4.2379   -0.4219    2.0103 H         1 ****        0.0000 
     46 C          -4.3401    0.9539    0.3623 C.3       1 ****        0.0000 
     47 H          -3.9667    1.7689    0.9767 H         1 ****        0.0000 
     48 C          -4.6480    1.1331   -0.9737 C.3       1 ****        0.0000 
     49 C          -4.2719    2.3896   -1.7698 C.3       1 ****        0.0000 
     50 O          -4.8422    2.7347   -2.7886 O.3       1 ****        0.0000 
     51 C          -3.0740    3.1210   -1.2523 C.3       1 ****        0.0000 
     52 H          -2.6891    3.6715   -2.1189 H         1 ****        0.0000 
     53 H          -3.4151    3.8475   -0.5045 H         1 ****        0.0000 
     54 N          -1.9195    2.2709   -0.6927 N.3       1 ****        0.0000 
     55 H          -2.1251    1.2982   -0.5041 H         1 ****        0.0000 
     56 C          -0.7907    2.7959   -0.0963 C.3       1 ****        0.0000 
     57 O          -0.6929    4.0179   -0.1355 O.3       1 ****        0.0000 
     58 C           0.1088    1.8154    0.6420 C.3       1 ****        0.0000 
     59 H          -0.3680    1.6564    1.6177 H         1 ****        0.0000 
     60 C           1.4567    2.4915    1.0142 C.3       1 ****        0.0000 
     61 H           1.2371    3.3277    1.6888 H         1 ****        0.0000 
     62 H           1.8659    3.0124    0.1400 H         1 ****        0.0000 
     63 C           2.4581    1.6626    1.8359 C.3       1 ****        0.0000 
     64 H           1.9615    1.2400    2.7182 H         1 ****        0.0000 
     65 H           2.8104    0.7907    1.2714 H         1 ****        0.0000 
     66 C           3.7482    2.3205    2.2488 C.3       1 ****        0.0000 
     67 C           4.7312    2.6790    1.1541 C.3       1 ****        0.0000 
     68 H           5.6388    3.1279    1.5735 H         1 ****        0.0000 
     69 H           4.9800    1.7954    0.5529 H         1 ****        0.0000 
     70 H           4.2237    3.3880    0.4895 H         1 ****        0.0000 
     71 H           4.2801    1.6897    2.9721 H         1 ****        0.0000 
     72 C           3.4859    3.6321    3.0625 C.3       1 ****        0.0000 
     73 H           3.0975    4.4700    2.4719 H         1 ****        0.0000 
     74 H           2.8563    3.4083    3.9319 H         1 ****        0.0000 
     75 H           4.4454    3.9276    3.5072 H         1 ****        0.0000 
@<TRIPOS>BOND
     1    1    2 1    
     2    1    3 1    
     3    1    4 1    
     4    1    5 1    
     5    5    6 1    
     6    5   10 1    
     7    5   14 1    
     8    6    7 1    
     9    6    8 1    
    10    6    9 1    
    11   10   11 1    
    12   10   12 1    
    13   10   13 1    
    14   14   15 1    
    15   15   16 1    
    16   15   17 1    
    17   17   18 1    
    18   17   19 1    
    19   19   20 1    
    20   19   24 1    
    21   19   25 1    
    22   20   21 1    
    23   20   23 1    
    24   21   22 1    
    25   21   58 1    
    26   25   26 1    
    27   25   27 1    
    28   25   28 1    
    29   28   29 1    
    30   28   33 1    
    31   29   30 1    
    32   29   32 1    
    33   30   31 1    
    34   30   37 1    
    35   33   34 1    
    36   33   35 1    
    37   35   36 1    
    38   35   37 1    
    39   37   38 1    
    40   38   39 1    
    41   39   40 1    
    42   39   44 1    
    43   40   41 1    
    44   40   43 1    
    45   41   42 1    
    46   41   48 1    
    47   44   45 1    
    48   44   46 1    
    49   46   47 1    
    50   46   48 1    
    51   48   49 1    
    52   49   50 1    
    53   49   51 1    
    54   51   52 1    
    55   51   53 1    
    56   51   54 1    
    57   54   55 1    
    58   54   56 1    
    59   56   57 1    
    60   56   58 1    
    61   58   59 1    
    62   58   60 1    
    63   60   61 1    
    64   60   62 1    
    65   60   63 1    
    66   63   64 1    
    67   63   65 1    
    68   63   66 1    
    69   66   67 1    
    70   66   71 1    
    71   66   72 1    
    72   67   68 1    
    73   67   69 1    
    74   67   70 1    
    75   72   73 1    
    76   72   74 1    
    77   72   75 1    
@<TRIPOS>SUBSTRUCTURE
     1 ****        1 GROUP             0       ****    0 ROOT    
