@<TRIPOS>MOLECULE
Cpd1-1
75   77    1
SMALL
USER_CHARGES


@<TRIPOS>ATOM
      1 C1        -23.0792    9.1904   -1.2075 C.3       1 UNK         0.0000 
      2 N2        -19.7324   10.1356    0.6545 N.am      1 UNK         0.0000 
      3 O3        -20.9974   12.9035   -0.7457 O.2       1 UNK         0.0000 
      4 C4        -24.9054    8.6931    0.4767 C.3       1 UNK         0.0000 
      5 N5        -20.2441    7.6616    3.2669 N.am      1 UNK         0.0000 
      6 O6        -21.3325    5.6599    3.1474 O.2       1 UNK         0.0000 
      7 N7        -20.0590    7.4799    6.0613 N.am      1 UNK         0.0000 
      8 O8        -18.8058    9.8974    2.7151 O.2       1 UNK         0.0000 
      9 C9        -23.9191    7.8738    4.6145 C.ar      1 UNK         0.0000 
     10 O10       -18.0252    6.3338    5.8830 O.2       1 UNK         0.0000 
     11 C11       -22.8619    8.8109    6.5799 C.ar      1 UNK         0.0000 
     12 O12       -24.3080   11.5057    4.5826 O.3       1 UNK         0.0000 
     13 C13       -21.1865   12.2218    2.7896 C.ar      1 UNK         0.0000 
     14 C14       -23.0405   12.3048    1.2400 C.ar      1 UNK         0.0000 
     15 C15       -24.4100    9.1309    4.2813 C.ar      1 UNK         0.0000 
     16 C16       -23.3537   10.0693    6.2471 C.ar      1 UNK         0.0000 
     17 C17       -22.0743   12.0223    3.8389 C.ar      1 UNK         0.0000 
     18 C18       -23.9306   12.1008    2.2927 C.ar      1 UNK         0.0000 
     19 C19       -22.3332    6.4145    5.9358 C.3       1 UNK         0.0000 
     20 C20       -19.4034   11.5458    0.4092 C.3       1 UNK         0.0000 
     21 C21       -22.4701    8.3772    1.1540 C.3       1 UNK         0.0000 
     22 C22       -21.1284    7.6675    0.8599 C.3       1 UNK         0.0000 
     23 C23       -23.0855    7.7276    5.7246 C.ar      1 UNK         0.0000 
     24 C24       -21.6591   12.2986    1.4752 C.ar      1 UNK         0.0000 
     25 C25       -24.0683   10.2385    5.0604 C.ar      1 UNK         0.0000 
     26 C26       -23.4449   11.9058    3.5854 C.ar      1 UNK         0.0000 
     27 C27       -20.6976   12.3878    0.3321 C.2       1 UNK         0.0000 
     28 C28       -20.8386    6.5758    3.8043 C.2       1 UNK         0.0000 
     29 C29       -19.4544    9.4370    1.7734 C.2       1 UNK         0.0000 
     30 C30       -23.4927    8.3166   -0.0054 C.3       1 UNK         0.0000 
     31 C31       -18.6909    7.3082    6.2398 C.2       1 UNK         0.0000 
     32 C32       -20.8854    6.4769    5.3583 C.3       1 UNK         0.0000 
     33 C33       -19.9728    7.9786    1.8571 C.3       1 UNK         0.0000 
     34 H34       -20.4609    5.4974    5.5923 H         1 UNK         0.0000 
     35 H35       -19.1264    7.3543    1.5684 H         1 UNK         0.0000 
     36 H36       -22.1346    8.8676   -1.6436 H         1 UNK         0.0000 
     37 H37       -23.8246    9.1441   -2.0022 H         1 UNK         0.0000 
     38 H38       -22.9689   10.2365   -0.9212 H         1 UNK         0.0000 
     39 H39       -25.2385    8.0327    1.2781 H         1 UNK         0.0000 
     40 H40       -24.9403    9.7161    0.8520 H         1 UNK         0.0000 
     41 H41       -25.6344    8.6119   -0.3303 H         1 UNK         0.0000 
     42 H42       -24.1128    7.0365    3.9597 H         1 UNK         0.0000 
     43 H43       -22.2349    8.6995    7.4527 H         1 UNK         0.0000 
     44 H44       -20.1299   12.2673    3.0093 H         1 UNK         0.0000 
     45 H45       -23.4329   12.3994    0.2374 H         1 UNK         0.0000 
     46 H46       -24.9749    9.2621    3.3708 H         1 UNK         0.0000 
     47 H47       -23.0981   10.9242    6.8558 H         1 UNK         0.0000 
     48 H48       -21.6901   11.8983    4.8405 H         1 UNK         0.0000 
     49 H49       -24.9897   12.0278    2.0939 H         1 UNK         0.0000 
     50 H50       -22.3050    6.1888    7.0033 H         1 UNK         0.0000 
     51 H51       -22.8920    5.5930    5.4830 H         1 UNK         0.0000 
     52 H52       -18.8435   11.6176   -0.5243 H         1 UNK         0.0000 
     53 H53       -18.7449   11.9662    1.1710 H         1 UNK         0.0000 
     54 H54       -22.9058    7.9047    2.0324 H         1 UNK         0.0000 
     55 H55       -22.3080    9.4174    1.4353 H         1 UNK         0.0000 
     56 H56       -21.2975    6.5922    0.8156 H         1 UNK         0.0000 
     57 H57       -20.7885    7.9115   -0.1456 H         1 UNK         0.0000 
     58 H58       -23.5429    7.2832   -0.3525 H         1 UNK         0.0000 
     59 H59       -20.2269    9.6650   -0.0900 H         1 UNK         0.0000 
     60 H60       -19.8869    8.3530    3.9106 H         1 UNK         0.0000 
     61 H61       -20.4936    8.3453    6.3478 H         1 UNK         0.0000 
     62 O62       -18.1948    8.4182    6.8507 O.3       1 UNK         0.0000 
     63 C63       -16.8024    8.6748    7.1153 C.3       1 UNK         0.0000 
     64 C64       -16.2077    7.6254    8.0877 C.3       1 UNK         0.0000 
     65 H65       -15.1983    7.8988    8.3975 H         1 UNK         0.0000 
     66 H66       -16.8134    7.5348    8.9902 H         1 UNK         0.0000 
     67 H67       -16.1468    6.6336    7.6401 H         1 UNK         0.0000 
     68 C68       -15.9851    8.7403    5.8001 C.3       1 UNK         0.0000 
     69 H69       -15.9248    7.7726    5.3023 H         1 UNK         0.0000 
     70 H70       -16.4321    9.4387    5.0910 H         1 UNK         0.0000 
     71 H71       -14.9619    9.0705    5.9839 H         1 UNK         0.0000 
     72 C72       -16.7902   10.0619    7.7908 C.3       1 UNK         0.0000 
     73 H73       -17.2184   10.8271    7.1413 H         1 UNK         0.0000 
     74 H74       -17.3733   10.0630    8.7131 H         1 UNK         0.0000 
     75 H75       -15.7771   10.3773    8.0439 H         1 UNK         0.0000 
@<TRIPOS>BOND
     1    1   30 1    
     2    1   38 1    
     3    1   36 1    
     4    1   37 1    
     5    2   29 am   BACKBONE|DICT|INTERRES
     6    2   20 1    
     7    2   59 1    
     8    3   27 2    
     9    4   30 1    
    10    4   39 1    
    11    4   40 1    
    12    4   41 1    
    13    5   60 1    
    14    5   28 am   BACKBONE|DICT|INTERRES
    15    5   33 1    
    16    6   28 2    
    17    7   61 1    
    18    7   31 am   BACKBONE|DICT|INTERRES
    19    7   32 1    
    20    8   29 2    
    21    9   15 ar   
    22    9   23 ar   
    23    9   42 1    
    24   10   31 2    
    25   11   16 ar   
    26   11   43 1    
    27   11   23 ar   
    28   12   25 1    
    29   12   26 1    
    30   13   17 ar   
    31   13   44 1    
    32   13   24 ar   
    33   14   18 ar   
    34   14   24 ar   
    35   14   45 1    
    36   15   25 ar   
    37   15   46 1    
    38   16   47 1    
    39   16   25 ar   
    40   17   48 1    
    41   17   26 ar   
    42   18   26 ar   
    43   18   49 1    
    44   19   32 1    
    45   19   23 1    
    46   19   50 1    
    47   19   51 1    
    48   20   53 1    
    49   20   27 1    
    50   20   52 1    
    51   21   54 1    
    52   21   55 1    
    53   21   22 1    
    54   21   30 1    
    55   22   33 1    
    56   22   56 1    
    57   22   57 1    
    58   24   27 1    
    59   28   32 1    
    60   29   33 1    
    61   30   58 1    
    62   31   62 1    
    63   32   34 1    
    64   33   35 1    
    65   62   63 1    
    66   63   64 1    
    67   63   72 1    
    68   63   68 1    
    69   64   66 1    
    70   64   65 1    
    71   64   67 1    
    72   68   71 1    
    73   68   69 1    
    74   68   70 1    
    75   72   74 1    
    76   72   75 1    
    77   72   73 1    
@<TRIPOS>SUBSTRUCTURE
     1 UNK         1 GROUP             0       ****    0 ROOT    
@<TRIPOS>MOLECULE
Cpd1-2
75   77    1
SMALL
USER_CHARGES


@<TRIPOS>ATOM
      1 C1        -24.1296    7.6449   -2.1140 C.3       1 UNK         0.0000 
      2 N2        -19.5663   10.1532    1.7102 N.am      1 UNK         0.0000 
      3 O3        -20.5487   12.6281   -0.3941 O.2       1 UNK         0.0000 
      4 C4        -24.7990    8.9210   -0.0293 C.3       1 UNK         0.0000 
      5 N5        -20.3368    7.8317    3.0287 N.am      1 UNK         0.0000 
      6 O6        -21.1679    5.7546    3.4276 O.2       1 UNK         0.0000 
      7 N7        -19.9165    8.2912    5.7656 N.am      1 UNK         0.0000 
      8 O8        -19.4579    8.9920   -0.2403 O.2       1 UNK         0.0000 
      9 C9        -23.6990    7.9010    4.7384 C.ar      1 UNK         0.0000 
     10 O10       -17.7011    7.6041    5.4486 O.2       1 UNK         0.0000 
     11 C11       -22.8738    9.0725    6.6900 C.ar      1 UNK         0.0000 
     12 O12       -24.5676   11.4331    4.4874 O.3       1 UNK         0.0000 
     13 C13       -21.3347   12.4527    3.1060 C.ar      1 UNK         0.0000 
     14 C14       -22.8817   12.0290    1.2929 C.ar      1 UNK         0.0000 
     15 C15       -24.3642    9.0511    4.3297 C.ar      1 UNK         0.0000 
     16 C16       -23.5456   10.2216    6.2851 C.ar      1 UNK         0.0000 
     17 C17       -22.3619   12.2737    4.0225 C.ar      1 UNK         0.0000 
     18 C18       -23.9079   11.8316    2.2154 C.ar      1 UNK         0.0000 
     19 C19       -21.9033    6.7971    6.1404 C.3       1 UNK         0.0000 
     20 C20       -19.1731   11.4755    1.2026 C.3       1 UNK         0.0000 
     21 C21       -22.4094    8.0046   -0.2739 C.3       1 UNK         0.0000 
     22 C22       -22.0670    7.9547    1.2332 C.3       1 UNK         0.0000 
     23 C23       -22.8861    7.9379    5.8739 C.ar      1 UNK         0.0000 
     24 C24       -21.5758   12.2609    1.7418 C.ar      1 UNK         0.0000 
     25 C25       -24.2186   10.2319    5.0617 C.ar      1 UNK         0.0000 
     26 C26       -23.6334   11.8910    3.5829 C.ar      1 UNK         0.0000 
     27 C27       -20.4327   12.2713    0.7788 C.2       1 UNK         0.0000 
     28 C28       -20.7019    6.8177    3.8394 C.2       1 UNK         0.0000 
     29 C29       -19.7919    9.0700    0.9421 C.2       1 UNK         0.0000 
     30 C30       -23.9083    7.7994   -0.5981 C.3       1 UNK         0.0000 
     31 C31       -18.5380    8.4636    5.7319 C.2       1 UNK         0.0000 
     32 C32       -20.5568    7.0171    5.3770 C.3       1 UNK         0.0000 
     33 C33       -20.5527    7.8885    1.5804 C.3       1 UNK         0.0000 
     34 H34       -19.9030    6.2083    5.7121 H         1 UNK         0.0000 
     35 H35       -20.1370    6.9751    1.1511 H         1 UNK         0.0000 
     36 H36       -23.5502    6.8129   -2.5161 H         1 UNK         0.0000 
     37 H37       -25.1777    7.4489   -2.3433 H         1 UNK         0.0000 
     38 H38       -23.8349    8.5455   -2.6542 H         1 UNK         0.0000 
     39 H39       -24.7285    8.9794    1.0558 H         1 UNK         0.0000 
     40 H40       -24.5205    9.8949   -0.4333 H         1 UNK         0.0000 
     41 H41       -25.8490    8.7518   -0.2704 H         1 UNK         0.0000 
     42 H42       -23.7292    7.0210    4.1124 H         1 UNK         0.0000 
     43 H43       -22.2605    9.1015    7.5790 H         1 UNK         0.0000 
     44 H44       -20.3431   12.6742    3.4744 H         1 UNK         0.0000 
     45 H45       -23.0930   11.9072    0.2398 H         1 UNK         0.0000 
     46 H46       -24.8961    9.0552    3.3903 H         1 UNK         0.0000 
     47 H47       -23.4409   11.1319    6.8573 H         1 UNK         0.0000 
     48 H48       -22.1455   12.3445    5.0781 H         1 UNK         0.0000 
     49 H49       -24.8916   11.5487    1.8705 H         1 UNK         0.0000 
     50 H50       -21.7134    6.7323    7.2133 H         1 UNK         0.0000 
     51 H51       -22.3625    5.8435    5.8731 H         1 UNK         0.0000 
     52 H52       -18.4682   11.3940    0.3723 H         1 UNK         0.0000 
     53 H53       -18.6395   12.0152    1.9849 H         1 UNK         0.0000 
     54 H54       -22.0912    8.9583   -0.6974 H         1 UNK         0.0000 
     55 H55       -21.8288    7.2351   -0.7854 H         1 UNK         0.0000 
     56 H56       -22.4991    8.8235    1.7320 H         1 UNK         0.0000 
     57 H57       -22.5682    7.0866    1.6613 H         1 UNK         0.0000 
     58 H58       -24.2247    6.8640   -0.1338 H         1 UNK         0.0000 
     59 H59       -19.8229   10.1133    2.6861 H         1 UNK         0.0000 
     60 H60       -19.9455    8.6668    3.4403 H         1 UNK         0.0000 
     61 H61       -20.5106    9.0810    5.9737 H         1 UNK         0.0000 
     62 O62       -18.2648    9.7658    6.0151 O.3       1 UNK         0.0000 
     63 C63       -16.9737   10.3930    5.9017 C.3       1 UNK         0.0000 
     64 C64       -15.9542    9.7725    6.8891 C.3       1 UNK         0.0000 
     65 H65       -15.0216   10.3379    6.9036 H         1 UNK         0.0000 
     66 H66       -16.3459    9.7622    7.9071 H         1 UNK         0.0000 
     67 H67       -15.7008    8.7445    6.6312 H         1 UNK         0.0000 
     68 C68       -16.4473   10.3313    4.4450 C.3       1 UNK         0.0000 
     69 H69       -16.2127    9.3136    4.1332 H         1 UNK         0.0000 
     70 H70       -17.1845   10.7202    3.7412 H         1 UNK         0.0000 
     71 H71       -15.5377   10.9213    4.3253 H         1 UNK         0.0000 
     72 C72       -17.2303   11.8654    6.2852 C.3       1 UNK         0.0000 
     73 H73       -17.9593   12.3309    5.6197 H         1 UNK         0.0000 
     74 H74       -17.6227   11.9521    7.2997 H         1 UNK         0.0000 
     75 H75       -16.3164   12.4589    6.2361 H         1 UNK         0.0000 
@<TRIPOS>BOND
     1    1   38 1    
     2    1   30 1    
     3    1   36 1    
     4    1   37 1    
     5    2   59 1    
     6    2   20 1    
     7    2   29 am   BACKBONE|DICT|INTERRES
     8    3   27 2    
     9    4   40 1    
    10    4   39 1    
    11    4   30 1    
    12    4   41 1    
    13    5   60 1    
    14    5   28 am   BACKBONE|DICT|INTERRES
    15    5   33 1    
    16    6   28 2    
    17    7   61 1    
    18    7   31 am   BACKBONE|DICT|INTERRES
    19    7   32 1    
    20    8   29 2    
    21    9   15 ar   
    22    9   23 ar   
    23    9   42 1    
    24   10   31 2    
    25   11   16 ar   
    26   11   43 1    
    27   11   23 ar   
    28   12   26 1    
    29   12   25 1    
    30   13   17 ar   
    31   13   44 1    
    32   13   24 ar   
    33   14   18 ar   
    34   14   24 ar   
    35   14   45 1    
    36   15   25 ar   
    37   15   46 1    
    38   16   47 1    
    39   16   25 ar   
    40   17   48 1    
    41   17   26 ar   
    42   18   26 ar   
    43   18   49 1    
    44   19   32 1    
    45   19   23 1    
    46   19   50 1    
    47   19   51 1    
    48   20   53 1    
    49   20   27 1    
    50   20   52 1    
    51   21   54 1    
    52   21   22 1    
    53   21   30 1    
    54   21   55 1    
    55   22   56 1    
    56   22   33 1    
    57   22   57 1    
    58   24   27 1    
    59   28   32 1    
    60   29   33 1    
    61   30   58 1    
    62   31   62 1    
    63   32   34 1    
    64   33   35 1    
    65   62   63 1    
    66   63   64 1    
    67   63   72 1    
    68   63   68 1    
    69   64   66 1    
    70   64   65 1    
    71   64   67 1    
    72   68   71 1    
    73   68   69 1    
    74   68   70 1    
    75   72   74 1    
    76   72   75 1    
    77   72   73 1    
@<TRIPOS>SUBSTRUCTURE
     1 UNK         1 GROUP             0       ****    0 ROOT    
@<TRIPOS>MOLECULE
Cpd1-3
75   77    1
SMALL
USER_CHARGES


@<TRIPOS>ATOM
      1 C1        -17.2360    7.5152   -2.3682 C.3       1 UNK         0.0000 
      2 N2        -19.4200   10.0134    0.6949 N.am      1 UNK         0.0000 
      3 O3        -19.4747   13.2309    1.0103 O.2       1 UNK         0.0000 
      4 C4        -16.3245    6.4473   -0.2558 C.3       1 UNK         0.0000 
      5 N5        -19.4838    7.5916    3.2030 N.am      1 UNK         0.0000 
      6 O6        -21.4251    6.4068    3.1580 O.2       1 UNK         0.0000 
      7 N7        -19.7785    7.9970    6.0800 N.am      1 UNK         0.0000 
      8 O8        -21.3174    8.8393    1.1804 O.2       1 UNK         0.0000 
      9 C9        -23.8009    7.8908    4.6415 C.ar      1 UNK         0.0000 
     10 O10       -20.3851    9.9180    4.8715 O.2       1 UNK         0.0000 
     11 C11       -22.9149    9.0409    6.5781 C.ar      1 UNK         0.0000 
     12 O12       -24.6074   11.4339    4.4149 O.3       1 UNK         0.0000 
     13 C13       -22.6899   11.6402    1.3117 C.ar      1 UNK         0.0000 
     14 C14       -21.4543   12.7269    3.0843 C.ar      1 UNK         0.0000 
     15 C15       -24.4655    9.0481    4.2581 C.ar      1 UNK         0.0000 
     16 C16       -23.5672   10.2058    6.1866 C.ar      1 UNK         0.0000 
     17 C17       -23.7687   11.4637    2.1707 C.ar      1 UNK         0.0000 
     18 C18       -22.5323   12.5437    3.9457 C.ar      1 UNK         0.0000 
     19 C19       -21.9975    6.7519    5.9942 C.3       1 UNK         0.0000 
     20 C20       -19.9812   11.1490   -0.0467 C.3       1 UNK         0.0000 
     21 C21       -18.8639    6.7222   -0.5813 C.3       1 UNK         0.0000 
     22 C22       -19.2550    6.5473    0.9068 C.3       1 UNK         0.0000 
     23 C23       -22.9549    7.9144    5.7518 C.ar      1 UNK         0.0000 
     24 C24       -21.5024   12.2148    1.7819 C.ar      1 UNK         0.0000 
     25 C25       -24.2728   10.2273    4.9822 C.ar      1 UNK         0.0000 
     26 C26       -23.6675   11.8609    3.5045 C.ar      1 UNK         0.0000 
     27 C27       -20.3053   12.3281    0.8957 C.2       1 UNK         0.0000 
     28 C28       -20.5339    6.9771    3.7867 C.2       1 UNK         0.0000 
     29 C29       -20.0931    8.9627    1.2022 C.2       1 UNK         0.0000 
     30 C30       -17.4546    7.3039   -0.8590 C.3       1 UNK         0.0000 
     31 C31       -19.7229    9.3510    5.7439 C.2       1 UNK         0.0000 
     32 C32       -20.5912    6.9927    5.3498 C.3       1 UNK         0.0000 
     33 C33       -19.2180    7.8303    1.7799 C.3       1 UNK         0.0000 
     34 H34       -20.0409    6.0770    5.5705 H         1 UNK         0.0000 
     35 H35       -18.1870    8.1855    1.7753 H         1 UNK         0.0000 
     36 H36       -17.9979    8.1718   -2.7898 H         1 UNK         0.0000 
     37 H37       -16.2673    7.9750   -2.5676 H         1 UNK         0.0000 
     38 H38       -17.2731    6.5713   -2.9135 H         1 UNK         0.0000 
     39 H39       -16.4004    6.3885    0.8300 H         1 UNK         0.0000 
     40 H40       -16.3432    5.4294   -0.6470 H         1 UNK         0.0000 
     41 H41       -15.3452    6.8707   -0.4820 H         1 UNK         0.0000 
     42 H42       -23.8682    7.0118    4.0176 H         1 UNK         0.0000 
     43 H43       -22.2843    9.0552    7.4551 H         1 UNK         0.0000 
     44 H44       -22.7811   11.2824    0.2971 H         1 UNK         0.0000 
     45 H45       -20.5630   13.2087    3.4609 H         1 UNK         0.0000 
     46 H46       -25.0268    9.0576    3.3354 H         1 UNK         0.0000 
     47 H47       -23.4270   11.1144    6.7537 H         1 UNK         0.0000 
     48 H48       -24.6502   10.9465    1.8216 H         1 UNK         0.0000 
     49 H49       -22.4569   12.8616    4.9749 H         1 UNK         0.0000 
     50 H50       -21.8986    6.5866    7.0686 H         1 UNK         0.0000 
     51 H51       -22.4421    5.8338    5.6054 H         1 UNK         0.0000 
     52 H52       -20.8516   10.8571   -0.6347 H         1 UNK         0.0000 
     53 H53       -19.2510   11.4656   -0.7927 H         1 UNK         0.0000 
     54 H54       -18.9419    5.7484   -1.0672 H         1 UNK         0.0000 
     55 H55       -19.6151    7.3407   -1.0750 H         1 UNK         0.0000 
     56 H56       -20.2551    6.1151    0.9301 H         1 UNK         0.0000 
     57 H57       -18.6117    5.7911    1.3574 H         1 UNK         0.0000 
     58 H58       -17.3950    8.2903   -0.3989 H         1 UNK         0.0000 
     59 H59       -18.4123    9.9986    0.7606 H         1 UNK         0.0000 
     60 H60       -18.7975    8.0060    3.8172 H         1 UNK         0.0000 
     61 H61       -19.1950    7.6608    6.8327 H         1 UNK         0.0000 
     62 O62       -18.8157    9.9633    6.5511 O.3       1 UNK         0.0000 
     63 C63       -18.4828   11.3652    6.5137 C.3       1 UNK         0.0000 
     64 C64       -17.9044   11.7779    5.1352 C.3       1 UNK         0.0000 
     65 H65       -17.5222   12.7993    5.1549 H         1 UNK         0.0000 
     66 H66       -17.0806   11.1263    4.8411 H         1 UNK         0.0000 
     67 H67       -18.6486   11.7325    4.3402 H         1 UNK         0.0000 
     68 C68       -19.7074   12.2385    6.8848 C.3       1 UNK         0.0000 
     69 H69       -20.4969   12.1786    6.1372 H         1 UNK         0.0000 
     70 H70       -20.1427   11.9271    7.8351 H         1 UNK         0.0000 
     71 H71       -19.4328   13.2899    6.9780 H         1 UNK         0.0000 
     72 C72       -17.3922   11.5303    7.5923 C.3       1 UNK         0.0000 
     73 H73       -17.7558   11.2343    8.5777 H         1 UNK         0.0000 
     74 H74       -16.5186   10.9136    7.3755 H         1 UNK         0.0000 
     75 H75       -17.0528   12.5644    7.6661 H         1 UNK         0.0000 
@<TRIPOS>BOND
     1    1   37 1    
     2    1   36 1    
     3    1   30 1    
     4    1   38 1    
     5    2   20 1    
     6    2   29 am   BACKBONE|DICT|INTERRES
     7    2   59 1    
     8    3   27 2    
     9    4   41 1    
    10    4   30 1    
    11    4   39 1    
    12    4   40 1    
    13    5   28 am   BACKBONE|DICT|INTERRES
    14    5   60 1    
    15    5   33 1    
    16    6   28 2    
    17    7   61 1    
    18    7   31 am   BACKBONE|DICT|INTERRES
    19    7   32 1    
    20    8   29 2    
    21    9   23 ar   
    22    9   15 ar   
    23    9   42 1    
    24   10   31 2    
    25   11   43 1    
    26   11   16 ar   
    27   11   23 ar   
    28   12   25 1    
    29   12   26 1    
    30   13   17 ar   
    31   13   24 ar   
    32   13   44 1    
    33   14   45 1    
    34   14   18 ar   
    35   14   24 ar   
    36   15   25 ar   
    37   15   46 1    
    38   16   47 1    
    39   16   25 ar   
    40   17   26 ar   
    41   17   48 1    
    42   18   49 1    
    43   18   26 ar   
    44   19   50 1    
    45   19   23 1    
    46   19   32 1    
    47   19   51 1    
    48   20   27 1    
    49   20   52 1    
    50   20   53 1    
    51   21   30 1    
    52   21   55 1    
    53   21   22 1    
    54   21   54 1    
    55   22   33 1    
    56   22   56 1    
    57   22   57 1    
    58   24   27 1    
    59   28   32 1    
    60   29   33 1    
    61   30   58 1    
    62   31   62 1    
    63   32   34 1    
    64   33   35 1    
    65   62   63 1    
    66   63   72 1    
    67   63   68 1    
    68   63   64 1    
    69   64   65 1    
    70   64   66 1    
    71   64   67 1    
    72   68   70 1    
    73   68   71 1    
    74   68   69 1    
    75   72   73 1    
    76   72   75 1    
    77   72   74 1    
@<TRIPOS>SUBSTRUCTURE
     1 UNK         1 GROUP             0       ****    0 ROOT    
@<TRIPOS>MOLECULE
Cpd1-4
75   77    1
SMALL
USER_CHARGES


@<TRIPOS>ATOM
      1 C1        -24.6033    7.3543    0.0905 C.3       1 UNK         0.0000 
      2 N2        -19.6833   10.1612    0.7087 N.am      1 UNK         0.0000 
      3 O3        -20.8441   12.9446   -0.7429 O.2       1 UNK         0.0000 
      4 C4        -24.1555    9.2235   -1.5622 C.3       1 UNK         0.0000 
      5 N5        -20.3395    7.6791    3.3403 N.am      1 UNK         0.0000 
      6 O6        -21.3528    5.6500    3.1358 O.2       1 UNK         0.0000 
      7 N7        -19.9430    7.2812    6.0938 N.am      1 UNK         0.0000 
      8 O8        -19.2090   10.0243    2.9220 O.2       1 UNK         0.0000 
      9 C9        -23.8687    7.7925    4.6319 C.ar      1 UNK         0.0000 
     10 O10       -17.9666    6.0667    5.7787 O.2       1 UNK         0.0000 
     11 C11       -22.7190    8.8031    6.5061 C.ar      1 UNK         0.0000 
     12 O12       -24.2796   11.4264    4.4842 O.3       1 UNK         0.0000 
     13 C13       -21.1911   12.4304    2.7802 C.ar      1 UNK         0.0000 
     14 C14       -22.9515   12.1466    1.1460 C.ar      1 UNK         0.0000 
     15 C15       -24.3603    9.0397    4.2602 C.ar      1 UNK         0.0000 
     16 C16       -23.2127   10.0511    6.1358 C.ar      1 UNK         0.0000 
     17 C17       -22.1009   12.1874    3.8024 C.ar      1 UNK         0.0000 
     18 C18       -23.8629   11.9012    2.1716 C.ar      1 UNK         0.0000 
     19 C19       -22.2724    6.3577    5.9791 C.3       1 UNK         0.0000 
     20 C20       -19.3107   11.5647    0.4789 C.3       1 UNK         0.0000 
     21 C21       -22.3628    8.6337    0.1462 C.3       1 UNK         0.0000 
     22 C22       -22.0054    8.4075    1.6338 C.3       1 UNK         0.0000 
     23 C23       -22.9983    7.6815    5.7199 C.ar      1 UNK         0.0000 
     24 C24       -21.5965   12.3347    1.4452 C.ar      1 UNK         0.0000 
     25 C25       -23.9848   10.1768    4.9792 C.ar      1 UNK         0.0000 
     26 C26       -23.4262   11.8656    3.4966 C.ar      1 UNK         0.0000 
     27 C27       -20.5860   12.4347    0.3480 C.2       1 UNK         0.0000 
     28 C28       -20.8429    6.5294    3.8308 C.2       1 UNK         0.0000 
     29 C29       -19.7179    9.5463    1.9049 C.2       1 UNK         0.0000 
     30 C30       -23.8839    8.6988   -0.1399 C.3       1 UNK         0.0000 
     31 C31       -18.5782    7.0446    6.2136 C.2       1 UNK         0.0000 
     32 C32       -20.8325    6.3470    5.3754 C.3       1 UNK         0.0000 
     33 C33       -20.4963    8.2092    1.9803 C.3       1 UNK         0.0000 
     34 H34       -20.4553    5.3377    5.5584 H         1 UNK         0.0000 
     35 H35       -20.0457    7.4962    1.2883 H         1 UNK         0.0000 
     36 H36       -24.5534    7.0367    1.1316 H         1 UNK         0.0000 
     37 H37       -25.6617    7.4267   -0.1623 H         1 UNK         0.0000 
     38 H38       -24.1721    6.5613   -0.5217 H         1 UNK         0.0000 
     39 H39       -23.7103   10.2077   -1.7133 H         1 UNK         0.0000 
     40 H40       -23.7451    8.5543   -2.3195 H         1 UNK         0.0000 
     41 H41       -25.2251    9.3221   -1.7509 H         1 UNK         0.0000 
     42 H42       -24.0985    6.9297    4.0237 H         1 UNK         0.0000 
     43 H43       -22.0603    8.7238    7.3585 H         1 UNK         0.0000 
     44 H44       -20.1597   12.6261    3.0365 H         1 UNK         0.0000 
     45 H45       -23.2930   12.1064    0.1213 H         1 UNK         0.0000 
     46 H46       -24.9630    9.1336    3.3685 H         1 UNK         0.0000 
     47 H47       -22.9307   10.9282    6.6994 H         1 UNK         0.0000 
     48 H48       -21.7610   12.1875    4.8275 H         1 UNK         0.0000 
     49 H49       -24.8905   11.6702    1.9322 H         1 UNK         0.0000 
     50 H50       -22.2372    6.1723    7.0541 H         1 UNK         0.0000 
     51 H51       -22.8604    5.5361    5.5651 H         1 UNK         0.0000 
     52 H52       -18.7098   11.6267   -0.4294 H         1 UNK         0.0000 
     53 H53       -18.6756   11.9645    1.2712 H         1 UNK         0.0000 
     54 H54       -21.9308    9.5702   -0.1987 H         1 UNK         0.0000 
     55 H55       -21.9099    7.8495   -0.4621 H         1 UNK         0.0000 
     56 H56       -22.3936    9.2393    2.2221 H         1 UNK         0.0000 
     57 H57       -22.5628    7.5364    1.9663 H         1 UNK         0.0000 
     58 H58       -24.3216    9.4211    0.5507 H         1 UNK         0.0000 
     59 H59       -20.0682    9.6751   -0.0884 H         1 UNK         0.0000 
     60 H60       -19.9145    8.3239    3.9912 H         1 UNK         0.0000 
     61 H61       -20.3343    8.1398    6.4536 H         1 UNK         0.0000 
     62 O62       -18.0166    8.0929    6.8753 O.3       1 UNK         0.0000 
     63 C63       -16.6091    8.2633    7.1304 C.3       1 UNK         0.0000 
     64 C64       -15.8074    8.3652    5.8081 C.3       1 UNK         0.0000 
     65 H65       -14.7663    8.6321    5.9941 H         1 UNK         0.0000 
     66 H66       -15.8031    7.4266    5.2540 H         1 UNK         0.0000 
     67 H67       -16.2275    9.1258    5.1485 H         1 UNK         0.0000 
     68 C68       -16.5169    9.6055    7.8859 C.3       1 UNK         0.0000 
     69 H69       -16.9148   10.4283    7.2899 H         1 UNK         0.0000 
     70 H70       -17.0859    9.5807    8.8166 H         1 UNK         0.0000 
     71 H71       -15.4854    9.8542    8.1396 H         1 UNK         0.0000 
     72 C72       -16.0553    7.1297    8.0297 C.3       1 UNK         0.0000 
     73 H73       -16.6514    7.0170    8.9361 H         1 UNK         0.0000 
     74 H74       -16.0525    6.1640    7.5244 H         1 UNK         0.0000 
     75 H75       -15.0286    7.3327    8.3368 H         1 UNK         0.0000 
@<TRIPOS>BOND
     1    1   36 1    
     2    1   30 1    
     3    1   37 1    
     4    1   38 1    
     5    2   29 am   BACKBONE|DICT|INTERRES
     6    2   20 1    
     7    2   59 1    
     8    3   27 2    
     9    4   39 1    
    10    4   30 1    
    11    4   40 1    
    12    4   41 1    
    13    5   60 1    
    14    5   28 am   BACKBONE|DICT|INTERRES
    15    5   33 1    
    16    6   28 2    
    17    7   31 am   BACKBONE|DICT|INTERRES
    18    7   61 1    
    19    7   32 1    
    20    8   29 2    
    21    9   15 ar   
    22    9   23 ar   
    23    9   42 1    
    24   10   31 2    
    25   11   16 ar   
    26   11   43 1    
    27   11   23 ar   
    28   12   25 1    
    29   12   26 1    
    30   13   17 ar   
    31   13   44 1    
    32   13   24 ar   
    33   14   18 ar   
    34   14   24 ar   
    35   14   45 1    
    36   15   25 ar   
    37   15   46 1    
    38   16   47 1    
    39   16   25 ar   
    40   17   48 1    
    41   17   26 ar   
    42   18   26 ar   
    43   18   49 1    
    44   19   32 1    
    45   19   23 1    
    46   19   50 1    
    47   19   51 1    
    48   20   53 1    
    49   20   27 1    
    50   20   52 1    
    51   21   54 1    
    52   21   22 1    
    53   21   30 1    
    54   21   55 1    
    55   22   56 1    
    56   22   33 1    
    57   22   57 1    
    58   24   27 1    
    59   28   32 1    
    60   29   33 1    
    61   30   58 1    
    62   31   62 1    
    63   32   34 1    
    64   33   35 1    
    65   62   63 1    
    66   63   72 1    
    67   63   68 1    
    68   63   64 1    
    69   64   65 1    
    70   64   66 1    
    71   64   67 1    
    72   68   70 1    
    73   68   71 1    
    74   68   69 1    
    75   72   73 1    
    76   72   75 1    
    77   72   74 1    
@<TRIPOS>SUBSTRUCTURE
     1 UNK         1 GROUP             0       ****    0 ROOT    
@<TRIPOS>MOLECULE
Cpd1-5
75   77    1
SMALL
USER_CHARGES


@<TRIPOS>ATOM
      1 C1        -24.6964    9.0461    0.1338 C.3       1 UNK         0.0000 
      2 N2        -19.7039   10.1223    0.5929 N.am      1 UNK         0.0000 
      3 O3        -21.0053   12.9132   -0.7072 O.2       1 UNK         0.0000 
      4 C4        -24.1705    6.6088    0.6006 C.3       1 UNK         0.0000 
      5 N5        -20.0614    7.5409    3.1365 N.am      1 UNK         0.0000 
      6 O6        -21.6510    5.9084    3.1281 O.2       1 UNK         0.0000 
      7 N7        -19.8914    7.3814    6.0700 N.am      1 UNK         0.0000 
      8 O8        -18.7028    9.8145    2.6036 O.2       1 UNK         0.0000 
      9 C9        -23.8784    7.8916    4.6422 C.ar      1 UNK         0.0000 
     10 O10       -20.3778    9.5172    5.2261 O.2       1 UNK         0.0000 
     11 C11       -22.9711    8.8146    6.6863 C.ar      1 UNK         0.0000 
     12 O12       -24.3154   11.5116    4.6212 O.3       1 UNK         0.0000 
     13 C13       -23.0349   12.2861    1.2737 C.ar      1 UNK         0.0000 
     14 C14       -21.1787   12.1496    2.8160 C.ar      1 UNK         0.0000 
     15 C15       -24.3857    9.1391    4.3047 C.ar      1 UNK         0.0000 
     16 C16       -23.4697   10.0691    6.3426 C.ar      1 UNK         0.0000 
     17 C17       -23.9270   12.0905    2.3266 C.ar      1 UNK         0.0000 
     18 C18       -22.0701   11.9685    3.8671 C.ar      1 UNK         0.0000 
     19 C19       -22.2733    6.4769    5.9793 C.3       1 UNK         0.0000 
     20 C20       -19.3928   11.5447    0.4029 C.3       1 UNK         0.0000 
     21 C21       -22.4004    8.4102    1.0591 C.3       1 UNK         0.0000 
     22 C22       -21.0928    7.6312    0.7723 C.3       1 UNK         0.0000 
     23 C23       -23.0922    7.7510    5.7867 C.ar      1 UNK         0.0000 
     24 C24       -21.6524   12.2574    1.5038 C.ar      1 UNK         0.0000 
     25 C25       -24.1040   10.2434    5.1114 C.ar      1 UNK         0.0000 
     26 C26       -23.4442   11.8857    3.6189 C.ar      1 UNK         0.0000 
     27 C27       -20.6968   12.3730    0.3562 C.2       1 UNK         0.0000 
     28 C28       -20.8877    6.6594    3.7350 C.2       1 UNK         0.0000 
     29 C29       -19.3852    9.3826    1.6728 C.2       1 UNK         0.0000 
     30 C30       -23.5928    7.9728    0.1745 C.3       1 UNK         0.0000 
     31 C31       -19.7283    8.7608    5.9489 C.2       1 UNK         0.0000 
     32 C32       -20.8673    6.5753    5.2970 C.3       1 UNK         0.0000 
     33 C33       -19.8886    7.9159    1.7221 C.3       1 UNK         0.0000 
     34 H34       -20.4274    5.5860    5.4314 H         1 UNK         0.0000 
     35 H35       -19.0559    7.3098    1.3639 H         1 UNK         0.0000 
     36 H36       -24.3102    9.9965   -0.2356 H         1 UNK         0.0000 
     37 H37       -25.5100    8.7509   -0.5296 H         1 UNK         0.0000 
     38 H38       -25.1238    9.2231    1.1199 H         1 UNK         0.0000 
     39 H39       -23.4235    5.8171    0.5519 H         1 UNK         0.0000 
     40 H40       -24.5524    6.6402    1.6215 H         1 UNK         0.0000 
     41 H41       -24.9937    6.3099   -0.0492 H         1 UNK         0.0000 
     42 H42       -24.0082    7.0648    3.9597 H         1 UNK         0.0000 
     43 H43       -22.3864    8.7049    7.5881 H         1 UNK         0.0000 
     44 H44       -23.4282   12.3997    0.2734 H         1 UNK         0.0000 
     45 H45       -20.1209   12.1708    3.0340 H         1 UNK         0.0000 
     46 H46       -24.8999    9.2695    3.3654 H         1 UNK         0.0000 
     47 H47       -23.2654   10.9196    6.9764 H         1 UNK         0.0000 
     48 H48       -24.9877   12.0400    2.1290 H         1 UNK         0.0000 
     49 H49       -21.6894   11.8373    4.8689 H         1 UNK         0.0000 
     50 H50       -22.1658    6.2697    7.0454 H         1 UNK         0.0000 
     51 H51       -22.8347    5.6310    5.5778 H         1 UNK         0.0000 
     52 H52       -18.8325   11.6598   -0.5261 H         1 UNK         0.0000 
     53 H53       -18.7412   11.9469    1.1805 H         1 UNK         0.0000 
     54 H54       -22.6729    8.3221    2.1092 H         1 UNK         0.0000 
     55 H55       -22.2233    9.4718    0.8981 H         1 UNK         0.0000 
     56 H56       -21.2815    6.5594    0.7572 H         1 UNK         0.0000 
     57 H57       -20.7860    7.8512   -0.2513 H         1 UNK         0.0000 
     58 H58       -23.2273    7.8673   -0.8483 H         1 UNK         0.0000 
     59 H59       -20.2191    9.6801   -0.1549 H         1 UNK         0.0000 
     60 H60       -19.4747    8.0835    3.7543 H         1 UNK         0.0000 
     61 H61       -19.3170    6.8870    6.7374 H         1 UNK         0.0000 
     62 O62       -18.7365    9.1569    6.7904 O.3       1 UNK         0.0000 
     63 C63       -18.3268   10.5217    7.0077 C.3       1 UNK         0.0000 
     64 C64       -17.1727   10.4186    8.0262 C.3       1 UNK         0.0000 
     65 H65       -16.7723   11.4007    8.2813 H         1 UNK         0.0000 
     66 H66       -17.4990    9.9472    8.9546 H         1 UNK         0.0000 
     67 H67       -16.3479    9.8199    7.6364 H         1 UNK         0.0000 
     68 C68       -17.8021   11.1765    5.7042 C.3       1 UNK         0.0000 
     69 H69       -17.0562   10.5471    5.2172 H         1 UNK         0.0000 
     70 H70       -18.5971   11.3539    4.9804 H         1 UNK         0.0000 
     71 H71       -17.3347   12.1414    5.9047 H         1 UNK         0.0000 
     72 C72       -19.4792   11.3580    7.6199 C.3       1 UNK         0.0000 
     73 H73       -20.3085   11.4909    6.9252 H         1 UNK         0.0000 
     74 H74       -19.8836   10.8802    8.5131 H         1 UNK         0.0000 
     75 H75       -19.1387   12.3537    7.9068 H         1 UNK         0.0000 
@<TRIPOS>BOND
     1    1   36 1    
     2    1   38 1    
     3    1   30 1    
     4    1   37 1    
     5    2   29 am   BACKBONE|DICT|INTERRES
     6    2   20 1    
     7    2   59 1    
     8    3   27 2    
     9    4   40 1    
    10    4   30 1    
    11    4   39 1    
    12    4   41 1    
    13    5   60 1    
    14    5   28 am   BACKBONE|DICT|INTERRES
    15    5   33 1    
    16    6   28 2    
    17    7   61 1    
    18    7   31 am   BACKBONE|DICT|INTERRES
    19    7   32 1    
    20    8   29 2    
    21    9   15 ar   
    22    9   23 ar   
    23    9   42 1    
    24   10   31 2    
    25   11   16 ar   
    26   11   43 1    
    27   11   23 ar   
    28   12   25 1    
    29   12   26 1    
    30   13   17 ar   
    31   13   24 ar   
    32   13   44 1    
    33   14   18 ar   
    34   14   45 1    
    35   14   24 ar   
    36   15   25 ar   
    37   15   46 1    
    38   16   47 1    
    39   16   25 ar   
    40   17   26 ar   
    41   17   48 1    
    42   18   49 1    
    43   18   26 ar   
    44   19   23 1    
    45   19   50 1    
    46   19   32 1    
    47   19   51 1    
    48   20   27 1    
    49   20   53 1    
    50   20   52 1    
    51   21   54 1    
    52   21   55 1    
    53   21   22 1    
    54   21   30 1    
    55   22   33 1    
    56   22   56 1    
    57   22   57 1    
    58   24   27 1    
    59   28   32 1    
    60   29   33 1    
    61   30   58 1    
    62   31   62 1    
    63   32   34 1    
    64   33   35 1    
    65   62   63 1    
    66   63   72 1    
    67   63   64 1    
    68   63   68 1    
    69   64   66 1    
    70   64   65 1    
    71   64   67 1    
    72   68   71 1    
    73   68   69 1    
    74   68   70 1    
    75   72   74 1    
    76   72   75 1    
    77   72   73 1    
@<TRIPOS>SUBSTRUCTURE
     1 UNK         1 GROUP             0       ****    0 ROOT    
@<TRIPOS>MOLECULE
Cpd1-6
75   77    1
SMALL
USER_CHARGES


@<TRIPOS>ATOM
      1 C1        -14.6194    8.1195    0.6953 C.3       1 UNK         0.0000 
      2 N2        -19.4930   10.2839    1.0574 N.am      1 UNK         0.0000 
      3 O3        -19.7716   13.5968    0.5626 O.2       1 UNK         0.0000 
      4 C4        -16.0268    6.1009    0.0823 C.3       1 UNK         0.0000 
      5 N5        -20.5570    7.3725    2.9122 N.am      1 UNK         0.0000 
      6 O6        -19.6311    6.9836    4.9583 O.2       1 UNK         0.0000 
      7 N7        -21.2783    4.4859    4.6005 N.am      1 UNK         0.0000 
      8 O8        -20.9280    8.6137    0.4646 O.2       1 UNK         0.0000 
      9 C9        -24.2819    7.8573    4.9172 C.ar      1 UNK         0.0000 
     10 O10       -20.7248    2.4633    3.6144 O.2       1 UNK         0.0000 
     11 C11       -22.4394    8.8133    6.1658 C.ar      1 UNK         0.0000 
     12 O12       -24.3363   11.4942    4.5608 O.3       1 UNK         0.0000 
     13 C13       -22.5641   11.4704    1.3563 C.ar      1 UNK         0.0000 
     14 C14       -21.5834   13.1434    2.8040 C.ar      1 UNK         0.0000 
     15 C15       -24.7511    9.1352    4.6291 C.ar      1 UNK         0.0000 
     16 C16       -22.9049   10.0900    5.8735 C.ar      1 UNK         0.0000 
     17 C17       -23.5480   11.2272    2.3055 C.ar      1 UNK         0.0000 
     18 C18       -22.5666   12.8937    3.7586 C.ar      1 UNK         0.0000 
     19 C19       -22.4740    6.3151    5.7833 C.3       1 UNK         0.0000 
     20 C20       -19.8335   11.2676    0.0203 C.3       1 UNK         0.0000 
     21 C21       -17.0880    8.0980    1.3096 C.3       1 UNK         0.0000 
     22 C22       -18.2941    7.3220    1.8848 C.3       1 UNK         0.0000 
     23 C23       -23.0983    7.6989    5.6424 C.ar      1 UNK         0.0000 
     24 C24       -21.5389   12.3823    1.6290 C.ar      1 UNK         0.0000 
     25 C25       -24.0289   10.2498    5.0588 C.ar      1 UNK         0.0000 
     26 C26       -23.5153   11.8965    3.5321 C.ar      1 UNK         0.0000 
     27 C27       -20.4073   12.5468    0.6676 C.2       1 UNK         0.0000 
     28 C28       -20.5281    6.8056    4.1324 C.2       1 UNK         0.0000 
     29 C29       -20.0459    9.0638    1.1975 C.2       1 UNK         0.0000 
     30 C30       -15.8173    7.2405    1.0993 C.3       1 UNK         0.0000 
     31 C31       -21.0735    3.6383    3.5061 C.2       1 UNK         0.0000 
     32 C32       -21.7249    5.8870    4.4881 C.3       1 UNK         0.0000 
     33 C33       -19.4884    8.1968    2.3430 C.3       1 UNK         0.0000 
     34 H34       -22.4714    5.9448    3.6911 H         1 UNK         0.0000 
     35 H35       -19.1412    8.8766    3.1242 H         1 UNK         0.0000 
     36 H36       -14.4255    8.8917    1.4407 H         1 UNK         0.0000 
     37 H37       -13.7083    7.5277    0.5991 H         1 UNK         0.0000 
     38 H38       -14.7935    8.6172   -0.2595 H         1 UNK         0.0000 
     39 H39       -16.7914    5.3991    0.4146 H         1 UNK         0.0000 
     40 H40       -16.3293    6.4863   -0.8921 H         1 UNK         0.0000 
     41 H41       -15.1109    5.5259   -0.0597 H         1 UNK         0.0000 
     42 H42       -24.7992    6.9964    4.5189 H         1 UNK         0.0000 
     43 H43       -21.5279    8.6959    6.7337 H         1 UNK         0.0000 
     44 H44       -22.5811   10.9040    0.4365 H         1 UNK         0.0000 
     45 H45       -20.8206   13.8784    3.0194 H         1 UNK         0.0000 
     46 H46       -25.6214    9.2591    4.0012 H         1 UNK         0.0000 
     47 H47       -22.3478   10.9527    6.2086 H         1 UNK         0.0000 
     48 H48       -24.2928   10.4685    2.1157 H         1 UNK         0.0000 
     49 H49       -22.5472   13.4219    4.7008 H         1 UNK         0.0000 
     50 H50       -21.8022    6.2918    6.6440 H         1 UNK         0.0000 
     51 H51       -23.2667    5.6017    6.0165 H         1 UNK         0.0000 
     52 H52       -20.5494   10.8844   -0.7089 H         1 UNK         0.0000 
     53 H53       -18.9339   11.4976   -0.5524 H         1 UNK         0.0000 
     54 H54       -17.3624    8.5579    0.3591 H         1 UNK         0.0000 
     55 H55       -16.8499    8.9199    1.9869 H         1 UNK         0.0000 
     56 H56       -18.6509    6.6055    1.1447 H         1 UNK         0.0000 
     57 H57       -17.9492    6.7300    2.7336 H         1 UNK         0.0000 
     58 H58       -15.5649    6.7803    2.0562 H         1 UNK         0.0000 
     59 H59       -18.7482   10.5468    1.6871 H         1 UNK         0.0000 
     60 H60       -21.3408    7.1907    2.3016 H         1 UNK         0.0000 
     61 H61       -21.1100    4.1270    5.5293 H         1 UNK         0.0000 
     62 O62       -21.2816    4.2788    2.3116 O.3       1 UNK         0.0000 
     63 C63       -21.0556    3.7205    1.0051 C.3       1 UNK         0.0000 
     64 C64       -21.4005    4.8718    0.0373 C.3       1 UNK         0.0000 
     65 H65       -21.2746    4.5735   -1.0043 H         1 UNK         0.0000 
     66 H66       -22.4327    5.2035    0.1609 H         1 UNK         0.0000 
     67 H67       -20.7647    5.7417    0.2070 H         1 UNK         0.0000 
     68 C68       -19.5716    3.3191    0.8133 C.3       1 UNK         0.0000 
     69 H69       -18.9033    4.1417    1.0702 H         1 UNK         0.0000 
     70 H70       -19.2893    2.4704    1.4361 H         1 UNK         0.0000 
     71 H71       -19.3652    3.0410   -0.2209 H         1 UNK         0.0000 
     72 C72       -21.9967    2.5204    0.7372 C.3       1 UNK         0.0000 
     73 H73       -21.7664    1.6647    1.3716 H         1 UNK         0.0000 
     74 H74       -23.0385    2.7864    0.9210 H         1 UNK         0.0000 
     75 H75       -21.9231    2.1819   -0.2970 H         1 UNK         0.0000 
@<TRIPOS>BOND
     1    1   37 1    
     2    1   30 1    
     3    1   36 1    
     4    1   38 1    
     5    2   29 am   BACKBONE|DICT|INTERRES
     6    2   59 1    
     7    2   20 1    
     8    3   27 2    
     9    4   41 1    
    10    4   39 1    
    11    4   30 1    
    12    4   40 1    
    13    5   28 am   BACKBONE|DICT|INTERRES
    14    5   33 1    
    15    5   60 1    
    16    6   28 2    
    17    7   61 1    
    18    7   31 am   BACKBONE|DICT|INTERRES
    19    7   32 1    
    20    8   29 2    
    21    9   23 ar   
    22    9   15 ar   
    23    9   42 1    
    24   10   31 2    
    25   11   43 1    
    26   11   16 ar   
    27   11   23 ar   
    28   12   25 1    
    29   12   26 1    
    30   13   24 ar   
    31   13   17 ar   
    32   13   44 1    
    33   14   45 1    
    34   14   18 ar   
    35   14   24 ar   
    36   15   25 ar   
    37   15   46 1    
    38   16   47 1    
    39   16   25 ar   
    40   17   26 ar   
    41   17   48 1    
    42   18   49 1    
    43   18   26 ar   
    44   19   51 1    
    45   19   50 1    
    46   19   23 1    
    47   19   32 1    
    48   20   27 1    
    49   20   52 1    
    50   20   53 1    
    51   21   30 1    
    52   21   22 1    
    53   21   55 1    
    54   21   54 1    
    55   22   57 1    
    56   22   33 1    
    57   22   56 1    
    58   24   27 1    
    59   28   32 1    
    60   29   33 1    
    61   30   58 1    
    62   31   62 1    
    63   32   34 1    
    64   33   35 1    
    65   62   63 1    
    66   63   68 1    
    67   63   64 1    
    68   63   72 1    
    69   64   67 1    
    70   64   65 1    
    71   64   66 1    
    72   68   69 1    
    73   68   70 1    
    74   68   71 1    
    75   72   73 1    
    76   72   74 1    
    77   72   75 1    
@<TRIPOS>SUBSTRUCTURE
     1 UNK         1 GROUP             0       ****    0 ROOT    
@<TRIPOS>MOLECULE
Cpd1-7
75   77    1
SMALL
USER_CHARGES


@<TRIPOS>ATOM
      1 C1        -16.6898    7.7825   -2.0198 C.3       1 UNK         0.0000 
      2 N2        -19.0303   10.3026    1.5423 N.am      1 UNK         0.0000 
      3 O3        -20.9166   12.2827   -0.6112 O.2       1 UNK         0.0000 
      4 C4        -16.0388    6.5572    0.1032 C.3       1 UNK         0.0000 
      5 N5        -19.4690    7.5621    3.2982 N.am      1 UNK         0.0000 
      6 O6        -21.5264    6.6610    2.9467 O.2       1 UNK         0.0000 
      7 N7        -19.9487    7.5590    6.1855 N.am      1 UNK         0.0000 
      8 O8        -20.7881    9.0479    0.7686 O.2       1 UNK         0.0000 
      9 C9        -23.9129    7.9867    4.5258 C.ar      1 UNK         0.0000 
     10 O10       -20.2622    9.6968    5.2662 O.2       1 UNK         0.0000 
     11 C11       -23.0131    8.8286    6.6092 C.ar      1 UNK         0.0000 
     12 O12       -24.4123   11.5879    4.6901 O.3       1 UNK         0.0000 
     13 C13       -21.2168   12.2127    3.0155 C.ar      1 UNK         0.0000 
     14 C14       -22.9815   12.0768    1.3670 C.ar      1 UNK         0.0000 
     15 C15       -24.4701    9.2306    4.2646 C.ar      1 UNK         0.0000 
     16 C16       -23.5573   10.0811    6.3414 C.ar      1 UNK         0.0000 
     17 C17       -22.1646   12.1341    4.0294 C.ar      1 UNK         0.0000 
     18 C18       -23.9292   11.9920    2.3825 C.ar      1 UNK         0.0000 
     19 C19       -22.2512    6.5587    5.7755 C.3       1 UNK         0.0000 
     20 C20       -19.1689   11.6095    0.8666 C.3       1 UNK         0.0000 
     21 C21       -18.5204    6.9412   -0.4658 C.3       1 UNK         0.0000 
     22 C22       -19.0699    6.6844    0.9596 C.3       1 UNK         0.0000 
     23 C23       -23.1078    7.8138    5.6525 C.ar      1 UNK         0.0000 
     24 C24       -21.6148   12.1295    1.6756 C.ar      1 UNK         0.0000 
     25 C25       -24.2095   10.2996    5.1273 C.ar      1 UNK         0.0000 
     26 C26       -23.5156   11.9620    3.7133 C.ar      1 UNK         0.0000 
     27 C27       -20.6087   12.0969    0.5675 C.2       1 UNK         0.0000 
     28 C28       -20.6268    7.0075    3.7118 C.2       1 UNK         0.0000 
     29 C29       -19.7205    9.1544    1.3723 C.2       1 UNK         0.0000 
     30 C30       -17.0735    7.4885   -0.5582 C.3       1 UNK         0.0000 
     31 C31       -19.7404    8.9349    6.0832 C.2       1 UNK         0.0000 
     32 C32       -20.7926    6.7754    5.2507 C.3       1 UNK         0.0000 
     33 C33       -19.0354    7.8912    1.9373 C.3       1 UNK         0.0000 
     34 H34       -20.3377    5.7881    5.3418 H         1 UNK         0.0000 
     35 H35       -17.9825    8.1432    2.0680 H         1 UNK         0.0000 
     36 H36       -17.3840    8.4892   -2.4763 H         1 UNK         0.0000 
     37 H37       -15.6930    8.2199   -2.0874 H         1 UNK         0.0000 
     38 H38       -16.6951    6.8749   -2.6249 H         1 UNK         0.0000 
     39 H39       -16.2337    6.4309    1.1682 H         1 UNK         0.0000 
     40 H40       -16.0424    5.5677   -0.3556 H         1 UNK         0.0000 
     41 H41       -15.0298    6.9607    0.0115 H         1 UNK         0.0000 
     42 H42       -24.0233    7.1951    3.7992 H         1 UNK         0.0000 
     43 H43       -22.4173    8.6886    7.4994 H         1 UNK         0.0000 
     44 H44       -20.1751   12.2871    3.2916 H         1 UNK         0.0000 
     45 H45       -23.3206   12.0369    0.3415 H         1 UNK         0.0000 
     46 H46       -24.9905    9.3941    3.3323 H         1 UNK         0.0000 
     47 H47       -23.3656   10.9038    7.0147 H         1 UNK         0.0000 
     48 H48       -21.8414   12.1193    5.0595 H         1 UNK         0.0000 
     49 H49       -24.9722   11.8616    2.1337 H         1 UNK         0.0000 
     50 H50       -22.2377    6.2342    6.8174 H         1 UNK         0.0000 
     51 H51       -22.7298    5.7430    5.2299 H         1 UNK         0.0000 
     52 H52       -18.5860   11.5820   -0.0556 H         1 UNK         0.0000 
     53 H53       -18.6888   12.3624    1.4919 H         1 UNK         0.0000 
     54 H54       -18.5782    6.0052   -1.0235 H         1 UNK         0.0000 
     55 H55       -19.1957    7.6186   -0.9904 H         1 UNK         0.0000 
     56 H56       -20.0912    6.3180    0.8580 H         1 UNK         0.0000 
     57 H57       -18.5187    5.8551    1.4041 H         1 UNK         0.0000 
     58 H58       -17.0369    8.4432   -0.0326 H         1 UNK         0.0000 
     59 H59       -18.1753   10.2170    2.0729 H         1 UNK         0.0000 
     60 H60       -18.7933    7.8008    4.0098 H         1 UNK         0.0000 
     61 H61       -19.4581    7.0475    6.9049 H         1 UNK         0.0000 
     62 O62       -18.8699    9.3171    7.0553 O.3       1 UNK         0.0000 
     63 C63       -18.4385   10.6705    7.2993 C.3       1 UNK         0.0000 
     64 C64       -19.6304   11.5701    7.7136 C.3       1 UNK         0.0000 
     65 H65       -19.2922   12.5585    8.0272 H         1 UNK         0.0000 
     66 H66       -20.3396   11.7179    6.8999 H         1 UNK         0.0000 
     67 H67       -20.1846   11.1342    8.5459 H         1 UNK         0.0000 
     68 C68       -17.4530   10.5524    8.4805 C.3       1 UNK         0.0000 
     69 H69       -17.9336   10.1237    9.3612 H         1 UNK         0.0000 
     70 H70       -16.6071    9.9092    8.2329 H         1 UNK         0.0000 
     71 H71       -17.0514   11.5251    8.7680 H         1 UNK         0.0000 
     72 C72       -17.6979   11.2623    6.0724 C.3       1 UNK         0.0000 
     73 H73       -16.9013   10.5987    5.7337 H         1 UNK         0.0000 
     74 H74       -18.3625   11.4260    5.2241 H         1 UNK         0.0000 
     75 H75       -17.2425   12.2245    6.3102 H         1 UNK         0.0000 
@<TRIPOS>BOND
     1    1   37 1    
     2    1   36 1    
     3    1   30 1    
     4    1   38 1    
     5    2   59 1    
     6    2   20 1    
     7    2   29 am   BACKBONE|DICT|INTERRES
     8    3   27 2    
     9    4   41 1    
    10    4   30 1    
    11    4   39 1    
    12    4   40 1    
    13    5   28 am   BACKBONE|DICT|INTERRES
    14    5   60 1    
    15    5   33 1    
    16    6   28 2    
    17    7   61 1    
    18    7   31 am   BACKBONE|DICT|INTERRES
    19    7   32 1    
    20    8   29 2    
    21    9   23 ar   
    22    9   15 ar   
    23    9   42 1    
    24   10   31 2    
    25   11   43 1    
    26   11   16 ar   
    27   11   23 ar   
    28   12   25 1    
    29   12   26 1    
    30   13   44 1    
    31   13   17 ar   
    32   13   24 ar   
    33   14   24 ar   
    34   14   18 ar   
    35   14   45 1    
    36   15   25 ar   
    37   15   46 1    
    38   16   47 1    
    39   16   25 ar   
    40   17   48 1    
    41   17   26 ar   
    42   18   26 ar   
    43   18   49 1    
    44   19   50 1    
    45   19   23 1    
    46   19   32 1    
    47   19   51 1    
    48   20   27 1    
    49   20   53 1    
    50   20   52 1    
    51   21   55 1    
    52   21   30 1    
    53   21   22 1    
    54   21   54 1    
    55   22   33 1    
    56   22   56 1    
    57   22   57 1    
    58   24   27 1    
    59   28   32 1    
    60   29   33 1    
    61   30   58 1    
    62   31   62 1    
    63   32   34 1    
    64   33   35 1    
    65   62   63 1    
    66   63   68 1    
    67   63   64 1    
    68   63   72 1    
    69   64   67 1    
    70   64   65 1    
    71   64   66 1    
    72   68   69 1    
    73   68   71 1    
    74   68   70 1    
    75   72   75 1    
    76   72   73 1    
    77   72   74 1    
@<TRIPOS>SUBSTRUCTURE
     1 UNK         1 GROUP             0       ****    0 ROOT    
@<TRIPOS>MOLECULE
Cpd1-8-MEC
75   77    1
SMALL
USER_CHARGES


@<TRIPOS>ATOM
      1 C1        -17.3472    4.8275   -0.6957 C.3       1 UNK         0.0000 
      2 N2        -19.4850   10.2897    1.0441 N.am      1 UNK         0.0000 
      3 O3        -19.7607   13.5977    0.5440 O.2       1 UNK         0.0000 
      4 C4        -16.5376    4.8741    1.7051 C.3       1 UNK         0.0000 
      5 N5        -20.5807    7.3688    2.9557 N.am      1 UNK         0.0000 
      6 O6        -19.6223    6.9139    4.9710 O.2       1 UNK         0.0000 
      7 N7        -21.1879    4.4736    4.6445 N.am      1 UNK         0.0000 
      8 O8        -21.0546    8.6967    0.5970 O.2       1 UNK         0.0000 
      9 C9        -24.2307    7.8387    4.8754 C.ar      1 UNK         0.0000 
     10 O10       -23.2491    3.3793    4.4689 O.2       1 UNK         0.0000 
     11 C11       -22.4277    8.8152    6.1649 C.ar      1 UNK         0.0000 
     12 O12       -24.3286   11.4782    4.5311 O.3       1 UNK         0.0000 
     13 C13       -21.5509   13.1179    2.8048 C.ar      1 UNK         0.0000 
     14 C14       -22.5862   11.5180    1.3130 C.ar      1 UNK         0.0000 
     15 C15       -24.7062    9.1116    4.5749 C.ar      1 UNK         0.0000 
     16 C16       -22.9000   10.0868    5.8611 C.ar      1 UNK         0.0000 
     17 C17       -22.5326   12.8625    3.7593 C.ar      1 UNK         0.0000 
     18 C18       -23.5679   11.2678    2.2630 C.ar      1 UNK         0.0000 
     19 C19       -22.4374    6.3131    5.8007 C.3       1 UNK         0.0000 
     20 C20       -19.8344   11.2672    0.0034 C.3       1 UNK         0.0000 
     21 C21       -18.4315    6.4427    0.9435 C.3       1 UNK         0.0000 
     22 C22       -18.2538    7.5271    2.0328 C.3       1 UNK         0.0000 
     23 C23       -23.0647    7.6928    5.6311 C.ar      1 UNK         0.0000 
     24 C24       -21.5343   12.3917    1.6076 C.ar      1 UNK         0.0000 
     25 C25       -24.0087   10.2347    5.0236 C.ar      1 UNK         0.0000 
     26 C26       -23.5073   11.8960    3.5096 C.ar      1 UNK         0.0000 
     27 C27       -20.4035   12.5518    0.6455 C.2       1 UNK         0.0000 
     28 C28       -20.5296    6.7534    4.1514 C.2       1 UNK         0.0000 
     29 C29       -20.1080    9.1162    1.2650 C.2       1 UNK         0.0000 
     30 C30       -17.1284    5.7069    0.5495 C.3       1 UNK         0.0000 
     31 C31       -22.0278    3.3666    4.6385 C.2       1 UNK         0.0000 
     32 C32       -21.7247    5.8318    4.4946 C.3       1 UNK         0.0000 
     33 C33       -19.5533    8.2731    2.4287 C.3       1 UNK         0.0000 
     34 H34       -22.4389    5.8402    3.6662 H         1 UNK         0.0000 
     35 H35       -19.3065    8.9771    3.2263 H         1 UNK         0.0000 
     36 H36       -17.7056    5.4177   -1.5399 H         1 UNK         0.0000 
     37 H37       -16.4199    4.3466   -1.0093 H         1 UNK         0.0000 
     38 H38       -18.0800    4.0422   -0.5058 H         1 UNK         0.0000 
     39 H39       -16.2518    5.4986    2.5510 H         1 UNK         0.0000 
     40 H40       -17.2499    4.1308    2.0655 H         1 UNK         0.0000 
     41 H41       -15.6389    4.3434    1.3887 H         1 UNK         0.0000 
     42 H42       -24.7305    6.9716    4.4684 H         1 UNK         0.0000 
     43 H43       -21.5294    8.7078    6.7554 H         1 UNK         0.0000 
     44 H44       -20.7672   13.8253    3.0369 H         1 UNK         0.0000 
     45 H45       -22.6238   10.9827    0.3752 H         1 UNK         0.0000 
     46 H46       -25.5645    9.2259    3.9292 H         1 UNK         0.0000 
     47 H47       -22.3615   10.9556    6.2105 H         1 UNK         0.0000 
     48 H48       -22.4926   13.3594    4.7176 H         1 UNK         0.0000 
     49 H49       -24.3329   10.5336    2.0571 H         1 UNK         0.0000 
     50 H50       -21.7442    6.3152    6.6447 H         1 UNK         0.0000 
     51 H51       -23.2291    5.6191    6.0868 H         1 UNK         0.0000 
     52 H52       -20.5544   10.8762   -0.7177 H         1 UNK         0.0000 
     53 H53       -18.9406   11.4934   -0.5798 H         1 UNK         0.0000 
     54 H54       -19.1685    5.7082    1.2719 H         1 UNK         0.0000 
     55 H55       -18.8495    6.9063    0.0490 H         1 UNK         0.0000 
     56 H56       -17.8266    7.0831    2.9312 H         1 UNK         0.0000 
     57 H57       -17.5174    8.2556    1.6900 H         1 UNK         0.0000 
     58 H58       -16.3884    6.4620    0.2791 H         1 UNK         0.0000 
     59 H59       -18.6938   10.5282    1.6249 H         1 UNK         0.0000 
     60 H60       -21.3690    7.2012    2.3469 H         1 UNK         0.0000 
     61 H61       -20.2121    4.3602    4.8788 H         1 UNK         0.0000 
     62 O62       -21.2757    2.2520    4.8517 O.3       1 UNK         0.0000 
     63 C63       -21.7780    0.9029    4.9130 C.3       1 UNK         0.0000 
     64 C64       -22.7736    0.7240    6.0868 C.3       1 UNK         0.0000 
     65 H65       -23.0473   -0.3235    6.2191 H         1 UNK         0.0000 
     66 H66       -22.3428    1.0706    7.0271 H         1 UNK         0.0000 
     67 H67       -23.6987    1.2793    5.9330 H         1 UNK         0.0000 
     68 C68       -22.4232    0.4793    3.5695 C.3       1 UNK         0.0000 
     69 H69       -23.3406    1.0290    3.3596 H         1 UNK         0.0000 
     70 H70       -21.7451    0.6535    2.7329 H         1 UNK         0.0000 
     71 H71       -22.6781   -0.5812    3.5683 H         1 UNK         0.0000 
     72 C72       -20.5257    0.0390    5.1712 C.3       1 UNK         0.0000 
     73 H73       -19.7904    0.1515    4.3729 H         1 UNK         0.0000 
     74 H74       -20.0314    0.3192    6.1028 H         1 UNK         0.0000 
     75 H75       -20.7752   -1.0208    5.2392 H         1 UNK         0.0000 
@<TRIPOS>BOND
     1    1   38 1    
     2    1   30 1    
     3    1   36 1    
     4    1   37 1    
     5    2   29 am   BACKBONE|DICT|INTERRES
     6    2   59 1    
     7    2   20 1    
     8    3   27 2    
     9    4   40 1    
    10    4   39 1    
    11    4   30 1    
    12    4   41 1    
    13    5   28 am   BACKBONE|DICT|INTERRES
    14    5   33 1    
    15    5   60 1    
    16    6   28 2    
    17    7   61 1    
    18    7   31 am   BACKBONE|DICT|INTERRES
    19    7   32 1    
    20    8   29 2    
    21    9   23 ar   
    22    9   15 ar   
    23    9   42 1    
    24   10   31 2    
    25   11   43 1    
    26   11   16 ar   
    27   11   23 ar   
    28   12   25 1    
    29   12   26 1    
    30   13   44 1    
    31   13   17 ar   
    32   13   24 ar   
    33   14   24 ar   
    34   14   18 ar   
    35   14   45 1    
    36   15   25 ar   
    37   15   46 1    
    38   16   47 1    
    39   16   25 ar   
    40   17   48 1    
    41   17   26 ar   
    42   18   26 ar   
    43   18   49 1    
    44   19   51 1    
    45   19   50 1    
    46   19   23 1    
    47   19   32 1    
    48   20   27 1    
    49   20   52 1    
    50   20   53 1    
    51   21   54 1    
    52   21   22 1    
    53   21   30 1    
    54   21   55 1    
    55   22   33 1    
    56   22   56 1    
    57   22   57 1    
    58   24   27 1    
    59   28   32 1    
    60   29   33 1    
    61   30   58 1    
    62   31   62 1    
    63   32   34 1    
    64   33   35 1    
    65   62   63 1    
    66   63   72 1    
    67   63   64 1    
    68   63   68 1    
    69   64   65 1    
    70   64   66 1    
    71   64   67 1    
    72   68   69 1    
    73   68   70 1    
    74   68   71 1    
    75   72   75 1    
    76   72   74 1    
    77   72   73 1    
@<TRIPOS>SUBSTRUCTURE
     1 UNK         1 GROUP             0       ****    0 ROOT    
@<TRIPOS>MOLECULE
Cpd1-9
75   77    1
SMALL
USER_CHARGES


@<TRIPOS>ATOM
      1 C1        -17.7744    4.0362    0.9368 C.3       1 UNK         0.0000 
      2 N2        -19.4385   10.1090    0.8104 N.am      1 UNK         0.0000 
      3 O3        -19.6823   13.3489    0.5707 O.2       1 UNK         0.0000 
      4 C4        -15.4600    4.7030    1.7329 C.3       1 UNK         0.0000 
      5 N5        -19.6153    7.7716    3.6295 N.am      1 UNK         0.0000 
      6 O6        -21.2615    6.3202    3.0184 O.2       1 UNK         0.0000 
      7 N7        -19.9753    7.1824    6.3572 N.am      1 UNK         0.0000 
      8 O8        -21.2703    8.9741    1.5684 O.2       1 UNK         0.0000 
      9 C9        -23.9662    7.8542    4.5690 C.ar      1 UNK         0.0000 
     10 O10       -17.9869    7.4630    7.5085 O.2       1 UNK         0.0000 
     11 C11       -22.7226    8.8503    6.3914 C.ar      1 UNK         0.0000 
     12 O12       -24.4120   11.4807    4.5004 O.3       1 UNK         0.0000 
     13 C13       -21.3983   12.8132    2.9132 C.ar      1 UNK         0.0000 
     14 C14       -22.7648   11.7027    1.2504 C.ar      1 UNK         0.0000 
     15 C15       -24.5062    9.0964    4.2588 C.ar      1 UNK         0.0000 
     16 C16       -23.2519   10.0969    6.0723 C.ar      1 UNK         0.0000 
     17 C17       -22.3945   12.6102    3.8643 C.ar      1 UNK         0.0000 
     18 C18       -23.7650   11.5158    2.1960 C.ar      1 UNK         0.0000 
     19 C19       -22.3085    6.4126    5.8151 C.3       1 UNK         0.0000 
     20 C20       -20.0597   11.0794   -0.1009 C.3       1 UNK         0.0000 
     21 C21       -17.4028    6.3153    2.0624 C.3       1 UNK         0.0000 
     22 C22       -18.5805    7.0861    1.4297 C.3       1 UNK         0.0000 
     23 C23       -23.0339    7.7392    5.6025 C.ar      1 UNK         0.0000 
     24 C24       -21.5514   12.2897    1.6248 C.ar      1 UNK         0.0000 
     25 C25       -24.1000   10.2273    4.9714 C.ar      1 UNK         0.0000 
     26 C26       -23.5526   11.9112    3.5176 C.ar      1 UNK         0.0000 
     27 C27       -20.4368   12.3782    0.6430 C.2       1 UNK         0.0000 
     28 C28       -20.5783    6.8602    3.8889 C.2       1 UNK         0.0000 
     29 C29       -20.0535    9.1559    1.5395 C.2       1 UNK         0.0000 
     30 C30       -16.8000    5.2084    1.1661 C.3       1 UNK         0.0000 
     31 C31       -18.6744    6.8163    6.7193 C.2       1 UNK         0.0000 
     32 C32       -20.8137    6.4548    5.3758 C.3       1 UNK         0.0000 
     33 C33       -19.1023    8.2328    2.3297 C.3       1 UNK         0.0000 
     34 H34       -20.5306    5.4018    5.4217 H         1 UNK         0.0000 
     35 H35       -18.2404    8.8498    2.5895 H         1 UNK         0.0000 
     36 H36       -18.6839    4.3592    0.4306 H         1 UNK         0.0000 
     37 H37       -17.3222    3.2643    0.3129 H         1 UNK         0.0000 
     38 H38       -18.0662    3.5702    1.8788 H         1 UNK         0.0000 
     39 H39       -14.7432    5.5178    1.8405 H         1 UNK         0.0000 
     40 H40       -15.5851    4.2429    2.7132 H         1 UNK         0.0000 
     41 H41       -15.0073    3.9603    1.0750 H         1 UNK         0.0000 
     42 H42       -24.2244    6.9979    3.9629 H         1 UNK         0.0000 
     43 H43       -22.0205    8.7664    7.2076 H         1 UNK         0.0000 
     44 H44       -20.4820   13.3049    3.2083 H         1 UNK         0.0000 
     45 H45       -22.9252   11.3374    0.2463 H         1 UNK         0.0000 
     46 H46       -25.1692    9.1926    3.4118 H         1 UNK         0.0000 
     47 H47       -22.9425   10.9699    6.6281 H         1 UNK         0.0000 
     48 H48       -22.2349   12.9269    4.8846 H         1 UNK         0.0000 
     49 H49       -24.6677   10.9906    1.9208 H         1 UNK         0.0000 
     50 H50       -22.3965    6.1231    6.8637 H         1 UNK         0.0000 
     51 H51       -22.8276    5.6283    5.2603 H         1 UNK         0.0000 
     52 H52       -20.9268   10.6566   -0.6101 H         1 UNK         0.0000 
     53 H53       -19.3561   11.3037   -0.9036 H         1 UNK         0.0000 
     54 H54       -16.6195    7.0330    2.3124 H         1 UNK         0.0000 
     55 H55       -17.7192    5.8757    3.0085 H         1 UNK         0.0000 
     56 H56       -18.2552    7.4954    0.4718 H         1 UNK         0.0000 
     57 H57       -19.3955    6.4009    1.1995 H         1 UNK         0.0000 
     58 H58       -16.5840    5.6495    0.1917 H         1 UNK         0.0000 
     59 H59       -18.4302   10.1484    0.8537 H         1 UNK         0.0000 
     60 H60       -19.1273    8.1635    4.4221 H         1 UNK         0.0000 
     61 H61       -20.3603    8.0314    6.7457 H         1 UNK         0.0000 
     62 O62       -18.2628    5.6678    6.0948 O.3       1 UNK         0.0000 
     63 C63       -16.9857    5.0263    6.2686 C.3       1 UNK         0.0000 
     64 C64       -17.0813    3.7505    5.4060 C.3       1 UNK         0.0000 
     65 H65       -16.1493    3.1839    5.4196 H         1 UNK         0.0000 
     66 H66       -17.8735    3.0883    5.7589 H         1 UNK         0.0000 
     67 H67       -17.3070    3.9836    4.3655 H         1 UNK         0.0000 
     68 C68       -15.8380    5.9255    5.7473 C.3       1 UNK         0.0000 
     69 H69       -16.0184    6.2464    4.7214 H         1 UNK         0.0000 
     70 H70       -15.7165    6.8269    6.3478 H         1 UNK         0.0000 
     71 H71       -14.8833    5.3983    5.7605 H         1 UNK         0.0000 
     72 C72       -16.7437    4.6187    7.7443 C.3       1 UNK         0.0000 
     73 H73       -16.6049    5.4808    8.3962 H         1 UNK         0.0000 
     74 H74       -17.5844    4.0472    8.1397 H         1 UNK         0.0000 
     75 H75       -15.8520    3.9982    7.8429 H         1 UNK         0.0000 
@<TRIPOS>BOND
     1    1   38 1    
     2    1   30 1    
     3    1   36 1    
     4    1   37 1    
     5    2   59 1    
     6    2   20 1    
     7    2   29 am   BACKBONE|DICT|INTERRES
     8    3   27 2    
     9    4   40 1    
    10    4   39 1    
    11    4   30 1    
    12    4   41 1    
    13    5   60 1    
    14    5   28 am   BACKBONE|DICT|INTERRES
    15    5   33 1    
    16    6   28 2    
    17    7   31 am   BACKBONE|DICT|INTERRES
    18    7   61 1    
    19    7   32 1    
    20    8   29 2    
    21    9   15 ar   
    22    9   23 ar   
    23    9   42 1    
    24   10   31 2    
    25   11   16 ar   
    26   11   43 1    
    27   11   23 ar   
    28   12   25 1    
    29   12   26 1    
    30   13   17 ar   
    31   13   44 1    
    32   13   24 ar   
    33   14   18 ar   
    34   14   24 ar   
    35   14   45 1    
    36   15   25 ar   
    37   15   46 1    
    38   16   47 1    
    39   16   25 ar   
    40   17   48 1    
    41   17   26 ar   
    42   18   26 ar   
    43   18   49 1    
    44   19   23 1    
    45   19   50 1    
    46   19   32 1    
    47   19   51 1    
    48   20   27 1    
    49   20   52 1    
    50   20   53 1    
    51   21   55 1    
    52   21   54 1    
    53   21   22 1    
    54   21   30 1    
    55   22   33 1    
    56   22   56 1    
    57   22   57 1    
    58   24   27 1    
    59   28   32 1    
    60   29   33 1    
    61   30   58 1    
    62   31   62 1    
    63   32   34 1    
    64   33   35 1    
    65   62   63 1    
    66   63   68 1    
    67   63   72 1    
    68   63   64 1    
    69   64   65 1    
    70   64   66 1    
    71   64   67 1    
    72   68   70 1    
    73   68   69 1    
    74   68   71 1    
    75   72   73 1    
    76   72   74 1    
    77   72   75 1    
@<TRIPOS>SUBSTRUCTURE
     1 UNK         1 GROUP             0       ****    0 ROOT    
@<TRIPOS>MOLECULE
Cpd1-10
75   77    1
SMALL
USER_CHARGES


@<TRIPOS>ATOM
      1 C1        -19.2172    4.3872   -0.9414 C.3       1 UNK         0.0000 
      2 N2        -19.4038   10.1479    0.8461 N.am      1 UNK         0.0000 
      3 O3        -19.7278   13.3821    0.5172 O.2       1 UNK         0.0000 
      4 C4        -17.0601    4.6264    0.3690 C.3       1 UNK         0.0000 
      5 N5        -19.6202    7.7564    3.6555 N.am      1 UNK         0.0000 
      6 O6        -21.3756    6.4632    2.9807 O.2       1 UNK         0.0000 
      7 N7        -19.9898    7.0062    6.3533 N.am      1 UNK         0.0000 
      8 O8        -21.2163    8.9254    1.4930 O.2       1 UNK         0.0000 
      9 C9        -24.0498    7.8430    4.6349 C.ar      1 UNK         0.0000 
     10 O10       -17.9641    7.1379    7.4706 O.2       1 UNK         0.0000 
     11 C11       -22.6599    8.8226    6.3576 C.ar      1 UNK         0.0000 
     12 O12       -24.3753   11.4809    4.5298 O.3       1 UNK         0.0000 
     13 C13       -21.4096   12.8519    2.8823 C.ar      1 UNK         0.0000 
     14 C14       -22.7407   11.6365    1.2655 C.ar      1 UNK         0.0000 
     15 C15       -24.5666    9.0985    4.3377 C.ar      1 UNK         0.0000 
     16 C16       -23.1661   10.0816    6.0506 C.ar      1 UNK         0.0000 
     17 C17       -22.3937   12.6449    3.8456 C.ar      1 UNK         0.0000 
     18 C18       -23.7287   11.4444    2.2227 C.ar      1 UNK         0.0000 
     19 C19       -22.3522    6.3665    5.7856 C.3       1 UNK         0.0000 
     20 C20       -20.0257   11.0855   -0.0980 C.3       1 UNK         0.0000 
     21 C21       -19.0715    6.1423    0.8950 C.3       1 UNK         0.0000 
     22 C22       -18.2655    7.2769    1.5684 C.3       1 UNK         0.0000 
     23 C23       -23.0563    7.7112    5.6082 C.ar      1 UNK         0.0000 
     24 C24       -21.5495   12.2825    1.6117 C.ar      1 UNK         0.0000 
     25 C25       -24.0769   10.2250    5.0025 C.ar      1 UNK         0.0000 
     26 C26       -23.5278   11.8945    3.5291 C.ar      1 UNK         0.0000 
     27 C27       -20.4475   12.3876    0.6161 C.2       1 UNK         0.0000 
     28 C28       -20.6359    6.8911    3.8665 C.2       1 UNK         0.0000 
     29 C29       -20.0109    9.1663    1.5423 C.2       1 UNK         0.0000 
     30 C30       -18.2925    5.3637   -0.1917 C.3       1 UNK         0.0000 
     31 C31       -18.6614    6.6361    6.5899 C.2       1 UNK         0.0000 
     32 C32       -20.8614    6.3875    5.3267 C.3       1 UNK         0.0000 
     33 C33       -19.0615    8.3087    2.4105 C.3       1 UNK         0.0000 
     34 H34       -20.5995    5.3277    5.2990 H         1 UNK         0.0000 
     35 H35       -18.3158    9.0121    2.7847 H         1 UNK         0.0000 
     36 H36       -20.0596    4.9096   -1.3963 H         1 UNK         0.0000 
     37 H37       -18.6849    3.8736   -1.7428 H         1 UNK         0.0000 
     38 H38       -19.6218    3.6270   -0.2718 H         1 UNK         0.0000 
     39 H39       -16.3490    5.3156    0.8244 H         1 UNK         0.0000 
     40 H40       -17.3443    3.8933    1.1247 H         1 UNK         0.0000 
     41 H41       -16.5266    4.0955   -0.4202 H         1 UNK         0.0000 
     42 H42       -24.3738    6.9879    4.0597 H         1 UNK         0.0000 
     43 H43       -21.9099    8.7288    7.1286 H         1 UNK         0.0000 
     44 H44       -20.5117   13.3883    3.1551 H         1 UNK         0.0000 
     45 H45       -22.8926   11.2327    0.2748 H         1 UNK         0.0000 
     46 H46       -25.2783    9.2056    3.5326 H         1 UNK         0.0000 
     47 H47       -22.7926   10.9517    6.5705 H         1 UNK         0.0000 
     48 H48       -22.2429   13.0038    4.8531 H         1 UNK         0.0000 
     49 H49       -24.6135   10.8796    1.9688 H         1 UNK         0.0000 
     50 H50       -22.4368    6.0547    6.8280 H         1 UNK         0.0000 
     51 H51       -22.8905    5.6050    5.2177 H         1 UNK         0.0000 
     52 H52       -20.8744   10.6376   -0.6170 H         1 UNK         0.0000 
     53 H53       -19.3105   11.3101   -0.8903 H         1 UNK         0.0000 
     54 H54       -19.4040    5.4344    1.6542 H         1 UNK         0.0000 
     55 H55       -19.9752    6.5565    0.4464 H         1 UNK         0.0000 
     56 H56       -17.4891    6.8457    2.2004 H         1 UNK         0.0000 
     57 H57       -17.7309    7.8227    0.7893 H         1 UNK         0.0000 
     58 H58       -17.9338    6.0873   -0.9256 H         1 UNK         0.0000 
     59 H59       -18.4037   10.2437    0.9499 H         1 UNK         0.0000 
     60 H60       -19.1054    8.0430    4.4758 H         1 UNK         0.0000 
     61 H61       -20.3875    7.7532    6.9043 H         1 UNK         0.0000 
     62 O62       -18.2270    5.6859    5.7033 O.3       1 UNK         0.0000 
     63 C63       -16.8776    5.2035    5.5792 C.3       1 UNK         0.0000 
     64 C64       -16.4250    4.4639    6.8619 C.3       1 UNK         0.0000 
     65 H65       -15.4576    3.9803    6.7203 H         1 UNK         0.0000 
     66 H66       -16.3256    5.1365    7.7137 H         1 UNK         0.0000 
     67 H67       -17.1394    3.6897    7.1447 H         1 UNK         0.0000 
     68 C68       -16.9428    4.2075    4.4029 C.3       1 UNK         0.0000 
     69 H69       -17.6314    3.3870    4.6103 H         1 UNK         0.0000 
     70 H70       -17.2917    4.6923    3.4902 H         1 UNK         0.0000 
     71 H71       -15.9663    3.7707    4.1896 H         1 UNK         0.0000 
     72 C72       -15.8999    6.3513    5.2222 C.3       1 UNK         0.0000 
     73 H73       -16.2504    6.9150    4.3567 H         1 UNK         0.0000 
     74 H74       -15.7803    7.0614    6.0403 H         1 UNK         0.0000 
     75 H75       -14.9073    5.9678    4.9827 H         1 UNK         0.0000 
@<TRIPOS>BOND
     1    1   38 1    
     2    1   30 1    
     3    1   36 1    
     4    1   37 1    
     5    2   59 1    
     6    2   20 1    
     7    2   29 am   BACKBONE|DICT|INTERRES
     8    3   27 2    
     9    4   40 1    
    10    4   39 1    
    11    4   30 1    
    12    4   41 1    
    13    5   60 1    
    14    5   28 am   BACKBONE|DICT|INTERRES
    15    5   33 1    
    16    6   28 2    
    17    7   31 am   BACKBONE|DICT|INTERRES
    18    7   61 1    
    19    7   32 1    
    20    8   29 2    
    21    9   15 ar   
    22    9   23 ar   
    23    9   42 1    
    24   10   31 2    
    25   11   16 ar   
    26   11   43 1    
    27   11   23 ar   
    28   12   25 1    
    29   12   26 1    
    30   13   17 ar   
    31   13   44 1    
    32   13   24 ar   
    33   14   18 ar   
    34   14   24 ar   
    35   14   45 1    
    36   15   25 ar   
    37   15   46 1    
    38   16   47 1    
    39   16   25 ar   
    40   17   48 1    
    41   17   26 ar   
    42   18   26 ar   
    43   18   49 1    
    44   19   32 1    
    45   19   23 1    
    46   19   50 1    
    47   19   51 1    
    48   20   27 1    
    49   20   52 1    
    50   20   53 1    
    51   21   54 1    
    52   21   22 1    
    53   21   30 1    
    54   21   55 1    
    55   22   56 1    
    56   22   33 1    
    57   22   57 1    
    58   24   27 1    
    59   28   32 1    
    60   29   33 1    
    61   30   58 1    
    62   31   62 1    
    63   32   34 1    
    64   33   35 1    
    65   62   63 1    
    66   63   72 1    
    67   63   64 1    
    68   63   68 1    
    69   64   66 1    
    70   64   65 1    
    71   64   67 1    
    72   68   69 1    
    73   68   70 1    
    74   68   71 1    
    75   72   74 1    
    76   72   73 1    
    77   72   75 1    
@<TRIPOS>SUBSTRUCTURE
     1 UNK         1 GROUP             0       ****    0 ROOT    
