@<TRIPOS>MOLECULE
Cpd1-500
95   95    1
SMALL
USER_CHARGES


@<TRIPOS>ATOM
      1 C1         34.1620   26.5570   24.5710 C.3       1 UNK         0.0000 
      2 H2         34.8960   26.4070   25.3720 H         1 UNK         0.0000 
      3 H3         34.7280   26.0390   23.7870 H         1 UNK         0.0000 
      4 H4         34.2370   27.5870   24.2020 H         1 UNK         0.0000 
      5 C5         32.7530   25.9640   24.8020 C.3       1 UNK         0.0000 
      6 C6         32.8290   24.6980   25.6590 C.3       1 UNK         0.0000 
      7 H7         33.2480   24.9800   26.6330 H         1 UNK         0.0000 
      8 H8         31.8460   24.2500   25.8530 H         1 UNK         0.0000 
      9 H9         33.5180   23.9780   25.2020 H         1 UNK         0.0000 
     10 C10        32.2360   25.6590   23.3730 C.3       1 UNK         0.0000 
     11 H11        31.2160   25.2580   23.4280 H         1 UNK         0.0000 
     12 H12        32.2470   26.5180   22.6900 H         1 UNK         0.0000 
     13 H13        32.8900   24.8910   22.9440 H         1 UNK         0.0000 
     14 O14        31.8030   26.9170   25.3730 O.3       1 UNK         0.0000 
     15 C15        32.1640   27.5850   26.4710 C.2       1 UNK         0.0000 
     16 O16        33.1640   27.4280   27.0860 O.2       1 UNK         0.0000 
     17 N17        31.0290   28.2150   26.9150 N.am      1 UNK         0.0000 
     18 H18        30.2000   28.0340   26.3610 H         1 UNK         0.0000 
     19 C19        30.8050   28.8210   28.2480 C.3       1 UNK         0.0000 
     20 C20        30.8000   27.7820   29.4410 C.2       1 UNK         0.0000 
     21 N21        32.0180   27.6530   30.0810 N.am      1 UNK         0.0000 
     22 H22        32.6960   28.2580   29.6330 H         1 UNK         0.0000 
     23 O23        29.8090   27.1710   29.7830 O.2       1 UNK         0.0000 
     24 H24        31.6060   29.5580   28.3850 H         1 UNK         0.0000 
     25 C25        29.5260   29.6940   28.1950 C.3       1 UNK         0.0000 
     26 H26        28.6520   29.0930   27.9150 H         1 UNK         0.0000 
     27 H27        29.6180   30.4230   27.3800 H         1 UNK         0.0000 
     28 C28        29.3840   30.4200   29.4210 C.ar      1 UNK         0.0000 
     29 C29        28.5320   29.9180   30.4710 C.ar      1 UNK         0.0000 
     30 C30        28.5040   30.6070   31.7050 C.ar      1 UNK         0.0000 
     31 H31        27.9390   30.1530   32.5140 H         1 UNK         0.0000 
     32 H32        27.9510   29.0160   30.3100 H         1 UNK         0.0000 
     33 C33        30.0770   31.6170   29.6580 C.ar      1 UNK         0.0000 
     34 H34        30.7630   32.0260   28.9220 H         1 UNK         0.0000 
     35 C35        29.9730   32.3250   30.8730 C.ar      1 UNK         0.0000 
     36 H36        30.5480   33.2360   31.0110 H         1 UNK         0.0000 
     37 C37        29.1760   31.8470   31.8710 C.ar      1 UNK         0.0000 
     38 O38        29.3070   32.2940   33.1480 O.3       1 UNK         0.0000 
     39 C39        30.2810   31.7180   33.8940 C.ar      1 UNK         0.0000 
     40 C40        31.4750   31.2700   33.3170 C.ar      1 UNK         0.0000 
     41 C41        32.3080   30.3520   33.8450 C.ar      1 UNK         0.0000 
     42 H42        33.1380   30.0120   33.2340 H         1 UNK         0.0000 
     43 H43        31.7750   31.7120   32.3710 H         1 UNK         0.0000 
     44 C44        29.9680   31.2610   35.1620 C.ar      1 UNK         0.0000 
     45 H45        29.0380   31.5430   35.6470 H         1 UNK         0.0000 
     46 C46        30.7730   30.2840   35.7250 C.ar      1 UNK         0.0000 
     47 H47        30.5050   29.9400   36.7190 H         1 UNK         0.0000 
     48 C48        31.8620   29.6940   35.0680 C.ar      1 UNK         0.0000 
     49 C49        32.5470   28.4490   35.5040 C.2       1 UNK         0.0000 
     50 O50        32.2910   27.9740   36.5600 O.2       1 UNK         0.0000 
     51 C51        33.4900   27.7900   34.5630 C.3       1 UNK         0.0000 
     52 H52        34.2750   28.4430   34.1630 H         1 UNK         0.0000 
     53 H53        33.9210   26.9430   35.1100 H         1 UNK         0.0000 
     54 N54        32.8250   27.1310   33.4110 N.am      1 UNK         0.0000 
     55 H55        31.9030   26.7180   33.4750 H         1 UNK         0.0000 
     56 C56        33.2530   27.2470   32.1540 C.2       1 UNK         0.0000 
     57 O57        34.3120   27.7390   31.8060 O.2       1 UNK         0.0000 
     58 C58        32.3550   26.6470   31.0870 C.3       1 UNK         0.0000 
     59 H59        31.3610   26.5660   31.5450 H         1 UNK         0.0000 
     60 C60        32.8940   25.3480   30.4440 C.3       1 UNK         0.0000 
     61 H61        33.5870   24.8750   31.1510 H         1 UNK         0.0000 
     62 H62        33.4370   25.5050   29.5040 H         1 UNK         0.0000 
     63 C63        31.8070   24.3450   30.2080 C.3       1 UNK         0.0000 
     64 H64        31.0080   24.4630   30.9500 H         1 UNK         0.0000 
     65 H65        31.2540   24.5640   29.2860 H         1 UNK         0.0000 
     66 C66        32.3230   22.8650   30.3240 C.3       1 UNK         0.0000 
     67 C67        31.0970   21.8530   30.1420 C.3       1 UNK         0.0000 
     68 H68        30.6560   21.9770   29.1460 H         1 UNK         0.0000 
     69 H69        31.4950   20.8340   30.2220 H         1 UNK         0.0000 
     70 H70        30.3060   22.0450   30.8770 H         1 UNK         0.0000 
     71 H71        32.7160   22.8050   31.3460 H         1 UNK         0.0000 
     72 C72        33.4810   22.5420   29.3160 C.3       1 UNK         0.0000 
     73 H73        33.8880   21.5330   29.4560 H         1 UNK         0.0000 
     74 H74        33.1160   22.6260   28.2850 H         1 UNK         0.0000 
     75 H75        34.3330   23.2330   29.3080 H         1 UNK         0.0000 
     76 C76        27.4600   27.9660   23.0240 C.3       1 UNK         0.0000 
     77 H77        27.6470   28.0300   21.9450 H         1 UNK         0.0000 
     78 H78        26.4820   28.4380   23.1820 H         1 UNK         0.0000 
     79 H79        27.5230   26.9290   23.3750 H         1 UNK         0.0000 
     80 S80        28.5860   28.8890   24.0120 S.3       1 UNK         0.0000 
     81 C81        29.9660   28.1480   23.3080 C.3       1 UNK         0.0000 
     82 H82        30.0100   28.3970   22.2410 H         1 UNK         0.0000 
     83 H83        29.8740   27.0670   23.4700 H         1 UNK         0.0000 
     84 H84        30.9090   28.4710   23.7650 H         1 UNK         0.0000 
     85 O85        28.3580   28.2470   25.3860 O.2       1 UNK         0.0000 
     86 C86        28.3180   25.6180   32.5410 C.3       1 UNK         0.0000 
     87 H87        27.3480   26.0930   32.7300 H         1 UNK         0.0000 
     88 H88        28.0760   24.5680   32.3360 H         1 UNK         0.0000 
     89 H89        28.8040   26.0810   31.6740 H         1 UNK         0.0000 
     90 S90        29.2240   25.7550   34.0580 S.3       1 UNK         0.0000 
     91 C91        29.2330   27.5190   33.9420 C.3       1 UNK         0.0000 
     92 H92        29.5380   27.8620   34.9390 H         1 UNK         0.0000 
     93 H93        28.2090   27.9090   33.8940 H         1 UNK         0.0000 
     94 H94        29.8960   27.9650   33.1900 H         1 UNK         0.0000 
     95 O95        30.6400   25.2480   33.6850 O.2       1 UNK         0.0000 
@<TRIPOS>BOND
     1    1    5 1    
     2    1    2 1    
     3    1    3 1    
     4    1    4 1    
     5    5   14 1    
     6    5    6 1    
     7    5   10 1    
     8    6    8 1    
     9    6    7 1    
    10    6    9 1    
    11   10   11 1    
    12   10   12 1    
    13   10   13 1    
    14   14   15 1    
    15   15   17 am   BACKBONE|DICT|INTERRES
    16   15   16 2    
    17   17   19 1    
    18   17   18 1    
    19   19   24 1    
    20   19   20 1    
    21   19   25 1    
    22   20   23 2    
    23   20   21 am   BACKBONE|DICT|INTERRES
    24   21   58 1    
    25   21   22 1    
    26   25   28 1    
    27   25   26 1    
    28   25   27 1    
    29   28   33 ar   
    30   28   29 ar   
    31   29   30 ar   
    32   29   32 1    
    33   30   37 ar   
    34   30   31 1    
    35   33   35 ar   
    36   33   34 1    
    37   35   36 1    
    38   35   37 ar   
    39   37   38 1    
    40   38   39 1    
    41   39   44 ar   
    42   39   40 ar   
    43   40   41 ar   
    44   40   43 1    
    45   41   48 ar   
    46   41   42 1    
    47   44   45 1    
    48   44   46 ar   
    49   46   47 1    
    50   46   48 ar   
    51   48   49 1    
    52   49   50 2    
    53   49   51 1    
    54   51   53 1    
    55   51   52 1    
    56   51   54 1    
    57   54   55 1    
    58   54   56 am   BACKBONE|DICT|INTERRES
    59   56   57 2    
    60   56   58 1    
    61   58   59 1    
    62   58   60 1    
    63   60   61 1    
    64   60   62 1    
    65   60   63 1    
    66   63   66 1    
    67   63   64 1    
    68   63   65 1    
    69   66   71 1    
    70   66   67 1    
    71   66   72 1    
    72   67   69 1    
    73   67   70 1    
    74   67   68 1    
    75   72   73 1    
    76   72   74 1    
    77   72   75 1    
    78   76   78 1    
    79   76   79 1    
    80   76   80 1    
    81   76   77 1    
    82   80   85 2    
    83   80   81 1    
    84   81   83 1    
    85   81   84 1    
    86   81   82 1    
    87   86   87 1    
    88   86   90 1    
    89   86   88 1    
    90   86   89 1    
    91   90   91 1    
    92   90   95 2    
    93   91   92 1    
    94   91   93 1    
    95   91   94 1    
@<TRIPOS>SUBSTRUCTURE
     1 UNK         1 GROUP             0       ****    0 ROOT    
@<TRIPOS>MOLECULE
Cpd1-1000
95   95    1
SMALL
USER_CHARGES


@<TRIPOS>ATOM
      1 C1         33.7860   26.6250   24.3610 C.3       1 UNK         0.0000 
      2 H2         34.2450   26.4660   25.3450 H         1 UNK         0.0000 
      3 H3         34.3070   26.1160   23.5420 H         1 UNK         0.0000 
      4 H4         33.8240   27.6860   24.0850 H         1 UNK         0.0000 
      5 C5         32.3280   26.0340   24.4870 C.3       1 UNK         0.0000 
      6 C6         32.3280   24.5780   25.0020 C.3       1 UNK         0.0000 
      7 H7         32.1830   23.7880   24.2540 H         1 UNK         0.0000 
      8 H8         33.1790   24.4230   25.6760 H         1 UNK         0.0000 
      9 H9         31.4380   24.3200   25.5900 H         1 UNK         0.0000 
     10 C10        31.6950   26.0120   23.0720 C.3       1 UNK         0.0000 
     11 H11        31.3020   27.0100   22.8430 H         1 UNK         0.0000 
     12 H12        32.3690   25.5490   22.3400 H         1 UNK         0.0000 
     13 H13        30.8180   25.3530   23.0480 H         1 UNK         0.0000 
     14 O14        31.5850   26.9320   25.2380 O.3       1 UNK         0.0000 
     15 C15        31.7900   27.1320   26.5380 C.2       1 UNK         0.0000 
     16 O16        32.5760   26.5550   27.2190 O.2       1 UNK         0.0000 
     17 N17        30.8370   28.0610   26.8210 N.am      1 UNK         0.0000 
     18 H18        30.2410   28.2950   26.0360 H         1 UNK         0.0000 
     19 C19        30.7730   28.8500   28.0920 C.3       1 UNK         0.0000 
     20 C20        30.5710   27.9510   29.3660 C.2       1 UNK         0.0000 
     21 N21        31.6840   27.9660   30.2470 N.am      1 UNK         0.0000 
     22 H22        32.5040   28.4280   29.8750 H         1 UNK         0.0000 
     23 O23        29.6460   27.1550   29.5030 O.2       1 UNK         0.0000 
     24 H24        31.6940   29.3930   28.3380 H         1 UNK         0.0000 
     25 C25        29.5700   29.8670   27.9790 C.3       1 UNK         0.0000 
     26 H26        28.6240   29.3380   27.8130 H         1 UNK         0.0000 
     27 H27        29.5950   30.5020   27.0850 H         1 UNK         0.0000 
     28 C28        29.5210   30.8170   29.2420 C.ar      1 UNK         0.0000 
     29 C29        28.4030   30.8500   30.0580 C.ar      1 UNK         0.0000 
     30 C30        28.4730   31.5190   31.3190 C.ar      1 UNK         0.0000 
     31 H31        27.6160   31.5330   31.9870 H         1 UNK         0.0000 
     32 H32        27.5660   30.2440   29.7240 H         1 UNK         0.0000 
     33 C33        30.6260   31.5910   29.5760 C.ar      1 UNK         0.0000 
     34 H34        31.5050   31.6800   28.9440 H         1 UNK         0.0000 
     35 C35        30.7180   32.2810   30.7930 C.ar      1 UNK         0.0000 
     36 H36        31.6120   32.8360   31.0600 H         1 UNK         0.0000 
     37 C37        29.6660   32.1710   31.7700 C.ar      1 UNK         0.0000 
     38 O38        29.8300   32.4550   33.0770 O.3       1 UNK         0.0000 
     39 C39        30.4240   31.4450   33.8510 C.ar      1 UNK         0.0000 
     40 C40        31.6780   31.0050   33.3220 C.ar      1 UNK         0.0000 
     41 C41        32.2330   29.8560   33.9010 C.ar      1 UNK         0.0000 
     42 H42        33.2050   29.5030   33.5670 H         1 UNK         0.0000 
     43 H43        32.0960   31.3740   32.3900 H         1 UNK         0.0000 
     44 C44        29.7750   30.8250   34.9440 C.ar      1 UNK         0.0000 
     45 H45        28.8870   31.3100   35.3380 H         1 UNK         0.0000 
     46 C46        30.4260   29.7970   35.6200 C.ar      1 UNK         0.0000 
     47 H47        29.9340   29.3720   36.4890 H         1 UNK         0.0000 
     48 C48        31.6420   29.3300   35.0880 C.ar      1 UNK         0.0000 
     49 C49        32.2860   28.1440   35.7340 C.2       1 UNK         0.0000 
     50 O50        32.0000   27.7850   36.8700 O.2       1 UNK         0.0000 
     51 C51        33.1320   27.1560   34.8770 C.3       1 UNK         0.0000 
     52 H52        34.0860   27.6490   34.6510 H         1 UNK         0.0000 
     53 H53        33.3490   26.2860   35.5090 H         1 UNK         0.0000 
     54 N54        32.5040   26.7060   33.5870 N.am      1 UNK         0.0000 
     55 H55        31.5420   26.4010   33.6790 H         1 UNK         0.0000 
     56 C56        32.9550   27.1010   32.3610 C.2       1 UNK         0.0000 
     57 O57        34.0170   27.7330   32.3150 O.2       1 UNK         0.0000 
     58 C58        31.9790   26.8370   31.1180 C.3       1 UNK         0.0000 
     59 H59        30.9900   26.4690   31.4180 H         1 UNK         0.0000 
     60 C60        32.6790   25.6920   30.3110 C.3       1 UNK         0.0000 
     61 H61        33.6570   26.0200   29.9370 H         1 UNK         0.0000 
     62 H62        32.1290   25.3960   29.4090 H         1 UNK         0.0000 
     63 C63        33.0560   24.5000   31.1820 C.3       1 UNK         0.0000 
     64 H64        34.0620   24.6290   31.5990 H         1 UNK         0.0000 
     65 H65        32.2950   24.4290   31.9690 H         1 UNK         0.0000 
     66 C66        32.9920   23.1830   30.4530 C.3       1 UNK         0.0000 
     67 C67        33.7880   23.2020   29.1220 C.3       1 UNK         0.0000 
     68 H68        34.8430   22.9470   29.2810 H         1 UNK         0.0000 
     69 H69        33.3020   22.5050   28.4290 H         1 UNK         0.0000 
     70 H70        33.6880   24.0830   28.4770 H         1 UNK         0.0000 
     71 H71        31.9430   22.9780   30.2050 H         1 UNK         0.0000 
     72 C72        33.4190   21.9860   31.2580 C.3       1 UNK         0.0000 
     73 H73        33.4490   21.0880   30.6290 H         1 UNK         0.0000 
     74 H74        34.4050   22.1090   31.7220 H         1 UNK         0.0000 
     75 H75        32.7190   21.8260   32.0870 H         1 UNK         0.0000 
     76 C76        27.3910   28.0580   23.6030 C.3       1 UNK         0.0000 
     77 H77        26.3010   27.9880   23.5070 H         1 UNK         0.0000 
     78 H78        27.7460   27.0410   23.8110 H         1 UNK         0.0000 
     79 H79        27.8050   28.4760   22.6770 H         1 UNK         0.0000 
     80 S80        27.7850   29.2920   24.8180 S.3       1 UNK         0.0000 
     81 C81        27.2050   30.5800   23.7910 C.3       1 UNK         0.0000 
     82 H82        26.2190   30.3080   23.3960 H         1 UNK         0.0000 
     83 H83        27.9220   30.8160   22.9940 H         1 UNK         0.0000 
     84 H84        27.0220   31.4860   24.3810 H         1 UNK         0.0000 
     85 O85        29.2510   29.4430   24.7670 O.2       1 UNK         0.0000 
     86 C86        27.2770   26.2250   33.1530 C.3       1 UNK         0.0000 
     87 H87        27.5500   25.7300   32.2130 H         1 UNK         0.0000 
     88 H88        26.3780   26.8040   32.9080 H         1 UNK         0.0000 
     89 H89        26.9950   25.4750   33.9030 H         1 UNK         0.0000 
     90 S90        28.4740   27.2990   33.9070 S.3       1 UNK         0.0000 
     91 C91        28.6080   28.4430   32.4630 C.3       1 UNK         0.0000 
     92 H92        29.2650   29.2320   32.8490 H         1 UNK         0.0000 
     93 H93        27.6160   28.6530   32.0450 H         1 UNK         0.0000 
     94 H94        29.1680   27.8370   31.7400 H         1 UNK         0.0000 
     95 O95        29.6840   26.4520   33.8620 O.2       1 UNK         0.0000 
@<TRIPOS>BOND
     1    1    5 1    
     2    1    2 1    
     3    1    3 1    
     4    1    4 1    
     5    5    6 1    
     6    5   14 1    
     7    5   10 1    
     8    6    9 1    
     9    6    8 1    
    10    6    7 1    
    11   10   11 1    
    12   10   12 1    
    13   10   13 1    
    14   14   15 1    
    15   15   17 am   BACKBONE|DICT|INTERRES
    16   15   16 2    
    17   17   19 1    
    18   17   18 1    
    19   19   24 1    
    20   19   20 1    
    21   19   25 1    
    22   20   23 2    
    23   20   21 am   BACKBONE|DICT|INTERRES
    24   21   58 1    
    25   21   22 1    
    26   25   28 1    
    27   25   26 1    
    28   25   27 1    
    29   28   33 ar   
    30   28   29 ar   
    31   29   30 ar   
    32   29   32 1    
    33   30   37 ar   
    34   30   31 1    
    35   33   35 ar   
    36   33   34 1    
    37   35   36 1    
    38   35   37 ar   
    39   37   38 1    
    40   38   39 1    
    41   39   44 ar   
    42   39   40 ar   
    43   40   41 ar   
    44   40   43 1    
    45   41   48 ar   
    46   41   42 1    
    47   44   45 1    
    48   44   46 ar   
    49   46   47 1    
    50   46   48 ar   
    51   48   49 1    
    52   49   50 2    
    53   49   51 1    
    54   51   53 1    
    55   51   52 1    
    56   51   54 1    
    57   54   55 1    
    58   54   56 am   BACKBONE|DICT|INTERRES
    59   56   57 2    
    60   56   58 1    
    61   58   59 1    
    62   58   60 1    
    63   60   63 1    
    64   60   61 1    
    65   60   62 1    
    66   63   64 1    
    67   63   65 1    
    68   63   66 1    
    69   66   72 1    
    70   66   67 1    
    71   66   71 1    
    72   67   68 1    
    73   67   69 1    
    74   67   70 1    
    75   72   74 1    
    76   72   75 1    
    77   72   73 1    
    78   76   78 1    
    79   76   80 1    
    80   76   77 1    
    81   76   79 1    
    82   80   81 1    
    83   80   85 2    
    84   81   84 1    
    85   81   82 1    
    86   81   83 1    
    87   86   89 1    
    88   86   90 1    
    89   86   87 1    
    90   86   88 1    
    91   90   91 1    
    92   90   95 2    
    93   91   92 1    
    94   91   93 1    
    95   91   94 1    
@<TRIPOS>SUBSTRUCTURE
     1 UNK         1 GROUP             0       ****    0 ROOT    
@<TRIPOS>MOLECULE
Cpd1-1500
85   86    1
SMALL
USER_CHARGES


@<TRIPOS>ATOM
      1 C1         32.9590   24.7610   24.7270 C.3       1 UNK         0.0000 
      2 H2         32.2160   23.9590   24.6360 H         1 UNK         0.0000 
      3 H3         33.7840   24.4170   24.0910 H         1 UNK         0.0000 
      4 H4         33.2610   24.6510   25.7760 H         1 UNK         0.0000 
      5 C5         32.4550   26.1590   24.4080 C.3       1 UNK         0.0000 
      6 C6         31.8740   26.0690   23.0260 C.3       1 UNK         0.0000 
      7 H7         30.9000   25.5650   23.0160 H         1 UNK         0.0000 
      8 H8         31.7390   27.0930   22.6560 H         1 UNK         0.0000 
      9 H9         32.5340   25.5720   22.3040 H         1 UNK         0.0000 
     10 C10        33.4500   27.3850   24.4120 C.3       1 UNK         0.0000 
     11 H11        32.9230   28.3250   24.2080 H         1 UNK         0.0000 
     12 H12        33.9760   27.5170   25.3660 H         1 UNK         0.0000 
     13 H13        34.1590   27.3030   23.5790 H         1 UNK         0.0000 
     14 O14        31.3490   26.4370   25.2590 O.3       1 UNK         0.0000 
     15 C15        31.5150   26.7980   26.5770 C.2       1 UNK         0.0000 
     16 O16        32.5290   26.6840   27.2180 O.2       1 UNK         0.0000 
     17 N17        30.5220   27.7080   26.8030 N.am      1 UNK         0.0000 
     18 H18        29.7260   27.7710   26.1800 H         1 UNK         0.0000 
     19 C19        30.6570   28.4440   28.1290 C.3       1 UNK         0.0000 
     20 C20        30.4210   27.6270   29.4040 C.2       1 UNK         0.0000 
     21 N21        31.4380   27.5280   30.3660 N.am      1 UNK         0.0000 
     22 H22        32.3460   27.8030   30.0090 H         1 UNK         0.0000 
     23 O23        29.3820   27.0000   29.5690 O.2       1 UNK         0.0000 
     24 H24        31.7050   28.7620   28.1880 H         1 UNK         0.0000 
     25 C25        29.6600   29.5950   28.0240 C.3       1 UNK         0.0000 
     26 H26        28.6810   29.1210   27.8870 H         1 UNK         0.0000 
     27 H27        29.8560   30.1730   27.1130 H         1 UNK         0.0000 
     28 C28        29.6400   30.5190   29.2420 C.ar      1 UNK         0.0000 
     29 C29        28.8900   30.2170   30.2910 C.ar      1 UNK         0.0000 
     30 C30        29.0140   30.8590   31.4870 C.ar      1 UNK         0.0000 
     31 H31        28.4480   30.4730   32.3290 H         1 UNK         0.0000 
     32 H32        28.1090   29.4910   30.0840 H         1 UNK         0.0000 
     33 C33        30.4960   31.6400   29.3540 C.ar      1 UNK         0.0000 
     34 H34        31.0890   31.9340   28.4940 H         1 UNK         0.0000 
     35 C35        30.5580   32.3830   30.5280 C.ar      1 UNK         0.0000 
     36 H36        31.1830   33.2650   30.6350 H         1 UNK         0.0000 
     37 C37        29.8070   31.9830   31.6200 C.ar      1 UNK         0.0000 
     38 O38        30.0780   32.5010   32.8380 O.3       1 UNK         0.0000 
     39 C39        30.7120   31.6580   33.7130 C.ar      1 UNK         0.0000 
     40 C40        31.9200   31.1810   33.4470 C.ar      1 UNK         0.0000 
     41 C41        32.4510   30.0700   34.1170 C.ar      1 UNK         0.0000 
     42 H42        33.4510   29.7400   33.8510 H         1 UNK         0.0000 
     43 H43        32.4420   31.6010   32.5920 H         1 UNK         0.0000 
     44 C44        30.0330   31.2030   34.8670 C.ar      1 UNK         0.0000 
     45 H45        29.0800   31.6470   35.1420 H         1 UNK         0.0000 
     46 C46        30.5420   30.1670   35.6320 C.ar      1 UNK         0.0000 
     47 H47        29.9940   29.8440   36.5130 H         1 UNK         0.0000 
     48 C48        31.7420   29.5000   35.2120 C.ar      1 UNK         0.0000 
     49 C49        32.1530   28.2430   35.8840 C.2       1 UNK         0.0000 
     50 O50        31.6710   27.8390   36.8930 O.2       1 UNK         0.0000 
     51 C51        33.0940   27.3450   35.1260 C.3       1 UNK         0.0000 
     52 H52        33.9290   27.8940   34.6740 H         1 UNK         0.0000 
     53 H53        33.5000   26.5460   35.7580 H         1 UNK         0.0000 
     54 N54        32.3680   26.7450   33.9250 N.am      1 UNK         0.0000 
     55 H55        31.5920   26.1190   34.1010 H         1 UNK         0.0000 
     56 C56        32.5970   27.1730   32.5610 C.2       1 UNK         0.0000 
     57 O57        33.5590   27.8080   32.1890 O.2       1 UNK         0.0000 
     58 C58        31.5180   26.6830   31.5750 C.3       1 UNK         0.0000 
     59 H59        30.5460   26.7120   32.0830 H         1 UNK         0.0000 
     60 C60        31.7380   25.1430   31.1880 C.3       1 UNK         0.0000 
     61 H61        30.9060   24.8820   30.5230 H         1 UNK         0.0000 
     62 H62        31.5480   24.5180   32.0690 H         1 UNK         0.0000 
     63 C63        33.1070   24.8890   30.4470 C.3       1 UNK         0.0000 
     64 H64        33.1220   25.7040   29.7140 H         1 UNK         0.0000 
     65 H65        33.8820   25.1350   31.1830 H         1 UNK         0.0000 
     66 C66        33.3070   23.5260   29.8330 C.3       1 UNK         0.0000 
     67 C67        34.4820   23.7010   28.8920 C.3       1 UNK         0.0000 
     68 H68        34.2070   24.4820   28.1730 H         1 UNK         0.0000 
     69 H69        35.4150   23.9100   29.4290 H         1 UNK         0.0000 
     70 H70        34.6850   22.7840   28.3250 H         1 UNK         0.0000 
     71 H71        32.4230   23.1110   29.3340 H         1 UNK         0.0000 
     72 C72        33.7010   22.5150   30.8910 C.3       1 UNK         0.0000 
     73 H73        33.6170   21.4770   30.5480 H         1 UNK         0.0000 
     74 H74        34.6910   22.7260   31.3140 H         1 UNK         0.0000 
     75 H75        32.9220   22.4730   31.6620 H         1 UNK         0.0000 
     76 C76        27.4970   24.9070   34.4550 C.3       1 UNK         0.0000 
     77 H77        27.4990   24.8560   33.3590 H         1 UNK         0.0000 
     78 H78        26.7510   25.6720   34.7050 H         1 UNK         0.0000 
     79 H79        27.1420   23.9450   34.8420 H         1 UNK         0.0000 
     80 S80        29.1560   25.5080   35.0440 S.3       1 UNK         0.0000 
     81 C81        28.8150   27.1590   34.2080 C.3       1 UNK         0.0000 
     82 H82        28.7600   26.9670   33.1290 H         1 UNK         0.0000 
     83 H83        29.6260   27.8930   34.2900 H         1 UNK         0.0000 
     84 H84        27.8710   27.5950   34.5550 H         1 UNK         0.0000 
     85 O85        30.1330   24.8640   34.1440 O.2       1 UNK         0.0000 
@<TRIPOS>BOND
     1    1    4 1    
     2    1    2 1    
     3    1    3 1    
     4    1    5 1    
     5    5   10 1    
     6    5   14 1    
     7    5    6 1    
     8    6    7 1    
     9    6    8 1    
    10    6    9 1    
    11   10   12 1    
    12   10   11 1    
    13   10   13 1    
    14   14   15 1    
    15   15   17 am   BACKBONE|DICT|INTERRES
    16   15   16 2    
    17   17   19 1    
    18   17   18 1    
    19   19   24 1    
    20   19   20 1    
    21   19   25 1    
    22   20   23 2    
    23   20   21 am   BACKBONE|DICT|INTERRES
    24   21   58 1    
    25   21   22 1    
    26   25   28 1    
    27   25   26 1    
    28   25   27 1    
    29   28   33 ar   
    30   28   29 ar   
    31   29   30 ar   
    32   29   32 1    
    33   30   37 ar   
    34   30   31 1    
    35   33   35 ar   
    36   33   34 1    
    37   35   36 1    
    38   35   37 ar   
    39   37   38 1    
    40   38   39 1    
    41   39   44 ar   
    42   39   40 ar   
    43   40   41 ar   
    44   40   43 1    
    45   41   48 ar   
    46   41   42 1    
    47   44   45 1    
    48   44   46 ar   
    49   46   47 1    
    50   46   48 ar   
    51   48   49 1    
    52   49   50 2    
    53   49   51 1    
    54   51   53 1    
    55   51   52 1    
    56   51   54 1    
    57   54   55 1    
    58   54   56 am   BACKBONE|DICT|INTERRES
    59   56   57 2    
    60   56   58 1    
    61   58   59 1    
    62   58   60 1    
    63   60   62 1    
    64   60   61 1    
    65   60   63 1    
    66   63   65 1    
    67   63   64 1    
    68   63   66 1    
    69   66   72 1    
    70   66   67 1    
    71   66   71 1    
    72   67   69 1    
    73   67   68 1    
    74   67   70 1    
    75   72   74 1    
    76   72   75 1    
    77   72   73 1    
    78   76   78 1    
    79   76   79 1    
    80   76   80 1    
    81   76   77 1    
    82   80   81 1    
    83   80   85 2    
    84   81   83 1    
    85   81   84 1    
    86   81   82 1    
@<TRIPOS>SUBSTRUCTURE
     1 UNK         1 GROUP             0       ****    0 ROOT    
@<TRIPOS>MOLECULE
Cpd1-2000
95   95    1
SMALL
USER_CHARGES


@<TRIPOS>ATOM
      1 C1         31.8760   24.3580   24.6540 C.3       1 UNK         0.0000 
      2 H2         30.8160   24.0760   24.6690 H         1 UNK         0.0000 
      3 H3         32.4090   23.5850   24.0870 H         1 UNK         0.0000 
      4 H4         32.3310   24.1930   25.6390 H         1 UNK         0.0000 
      5 C5         32.0920   25.8020   24.1450 C.3       1 UNK         0.0000 
      6 C6         31.5510   26.0110   22.7360 C.3       1 UNK         0.0000 
      7 H7         31.9310   25.2150   22.0840 H         1 UNK         0.0000 
      8 H8         30.4580   25.9240   22.7400 H         1 UNK         0.0000 
      9 H9         31.8640   27.0330   22.4850 H         1 UNK         0.0000 
     10 C10        33.6620   26.0070   24.0930 C.3       1 UNK         0.0000 
     11 H11        34.2160   25.2500   23.5250 H         1 UNK         0.0000 
     12 H12        33.8900   26.9390   23.5610 H         1 UNK         0.0000 
     13 H13        34.0410   25.8130   25.1040 H         1 UNK         0.0000 
     14 O14        31.3980   26.6910   24.9520 O.3       1 UNK         0.0000 
     15 C15        31.7510   26.9350   26.2090 C.2       1 UNK         0.0000 
     16 O16        32.6670   26.5750   26.8530 O.2       1 UNK         0.0000 
     17 N17        30.8870   27.8400   26.7000 N.am      1 UNK         0.0000 
     18 H18        30.0900   28.0070   26.0980 H         1 UNK         0.0000 
     19 C19        30.9980   28.6040   27.9630 C.3       1 UNK         0.0000 
     20 C20        30.7230   27.7220   29.2320 C.2       1 UNK         0.0000 
     21 N21        31.6420   27.8140   30.3440 N.am      1 UNK         0.0000 
     22 H22        32.3750   28.5020   30.2200 H         1 UNK         0.0000 
     23 O23        29.6750   27.1160   29.3980 O.2       1 UNK         0.0000 
     24 H24        32.0020   29.0300   28.0780 H         1 UNK         0.0000 
     25 C25        29.9230   29.7440   27.9750 C.3       1 UNK         0.0000 
     26 H26        28.8970   29.3580   27.9310 H         1 UNK         0.0000 
     27 H27        30.0770   30.4050   27.1130 H         1 UNK         0.0000 
     28 C28        29.8830   30.5120   29.2960 C.ar      1 UNK         0.0000 
     29 C29        29.0830   30.0880   30.3160 C.ar      1 UNK         0.0000 
     30 C30        29.1360   30.7400   31.5060 C.ar      1 UNK         0.0000 
     31 H31        28.4840   30.3600   32.2870 H         1 UNK         0.0000 
     32 H32        28.4760   29.1940   30.2050 H         1 UNK         0.0000 
     33 C33        30.7380   31.6750   29.4500 C.ar      1 UNK         0.0000 
     34 H34        31.3420   31.9140   28.5800 H         1 UNK         0.0000 
     35 C35        30.7520   32.3760   30.6740 C.ar      1 UNK         0.0000 
     36 H36        31.3330   33.2710   30.8760 H         1 UNK         0.0000 
     37 C37        29.9710   31.8350   31.7220 C.ar      1 UNK         0.0000 
     38 O38        29.9550   32.4030   32.9720 O.3       1 UNK         0.0000 
     39 C39        30.4540   31.5650   33.9380 C.ar      1 UNK         0.0000 
     40 C40        31.8150   31.3760   34.0100 C.ar      1 UNK         0.0000 
     41 C41        32.3990   30.3700   34.7470 C.ar      1 UNK         0.0000 
     42 H42        33.4730   30.2240   34.6900 H         1 UNK         0.0000 
     43 H43        32.4290   32.0260   33.3940 H         1 UNK         0.0000 
     44 C44        29.6360   30.7220   34.7620 C.ar      1 UNK         0.0000 
     45 H45        28.5670   30.9050   34.7060 H         1 UNK         0.0000 
     46 C46        30.1630   29.6010   35.4580 C.ar      1 UNK         0.0000 
     47 H47        29.4690   28.9320   35.9580 H         1 UNK         0.0000 
     48 C48        31.5620   29.3810   35.3770 C.ar      1 UNK         0.0000 
     49 C49        32.1890   28.1450   36.0080 C.2       1 UNK         0.0000 
     50 O50        31.7460   27.6890   37.0920 O.2       1 UNK         0.0000 
     51 C51        33.2580   27.4230   35.1010 C.3       1 UNK         0.0000 
     52 H52        34.0280   28.1860   34.9340 H         1 UNK         0.0000 
     53 H53        33.7720   26.6270   35.6530 H         1 UNK         0.0000 
     54 N54        32.6120   26.8830   33.8320 N.am      1 UNK         0.0000 
     55 H55        31.6960   26.4720   33.9690 H         1 UNK         0.0000 
     56 C56        32.6640   27.5250   32.6160 C.2       1 UNK         0.0000 
     57 O57        33.4420   28.4460   32.5230 O.2       1 UNK         0.0000 
     58 C58        31.5560   26.9900   31.6420 C.3       1 UNK         0.0000 
     59 H59        30.6290   27.2390   32.1720 H         1 UNK         0.0000 
     60 C60        31.7200   25.4640   31.3160 C.3       1 UNK         0.0000 
     61 H61        30.8680   25.1680   30.6920 H         1 UNK         0.0000 
     62 H62        31.5460   25.0010   32.2950 H         1 UNK         0.0000 
     63 C63        33.1060   25.0920   30.7040 C.3       1 UNK         0.0000 
     64 H64        33.2430   25.6940   29.7970 H         1 UNK         0.0000 
     65 H65        33.9040   25.2900   31.4290 H         1 UNK         0.0000 
     66 C66        33.3250   23.6010   30.3170 C.3       1 UNK         0.0000 
     67 C67        32.5580   23.1750   29.0660 C.3       1 UNK         0.0000 
     68 H68        32.7520   22.1450   28.7420 H         1 UNK         0.0000 
     69 H69        31.4710   23.1150   29.1990 H         1 UNK         0.0000 
     70 H70        32.7690   23.8860   28.2580 H         1 UNK         0.0000 
     71 H71        33.0150   23.0610   31.2200 H         1 UNK         0.0000 
     72 C72        34.8230   23.3880   29.9790 C.3       1 UNK         0.0000 
     73 H73        35.4210   23.6580   30.8580 H         1 UNK         0.0000 
     74 H74        35.0310   22.3790   29.6030 H         1 UNK         0.0000 
     75 H75        35.0840   23.9990   29.1060 H         1 UNK         0.0000 
     76 C76        27.1690   25.6590   24.3800 C.3       1 UNK         0.0000 
     77 H77        27.7080   24.9010   24.9620 H         1 UNK         0.0000 
     78 H78        27.7520   26.0000   23.5160 H         1 UNK         0.0000 
     79 H79        26.2250   25.2110   24.0470 H         1 UNK         0.0000 
     80 S80        26.8920   27.1000   25.3490 S.3       1 UNK         0.0000 
     81 C81        25.9250   28.1430   24.2240 C.3       1 UNK         0.0000 
     82 H82        24.8950   28.2200   24.5930 H         1 UNK         0.0000 
     83 H83        26.0980   27.8890   23.1710 H         1 UNK         0.0000 
     84 H84        26.3460   29.1270   24.4620 H         1 UNK         0.0000 
     85 O85        28.2390   27.6770   25.3920 O.2       1 UNK         0.0000 
     86 C86        27.7800   25.5400   32.7120 C.3       1 UNK         0.0000 
     87 H87        27.9150   26.1860   31.8360 H         1 UNK         0.0000 
     88 H88        26.7510   25.1600   32.7550 H         1 UNK         0.0000 
     89 H89        28.4830   24.6990   32.7460 H         1 UNK         0.0000 
     90 S90        28.1360   26.4620   34.2300 S.3       1 UNK         0.0000 
     91 C91        27.3090   27.9310   33.5500 C.3       1 UNK         0.0000 
     92 H92        27.5000   28.7600   34.2430 H         1 UNK         0.0000 
     93 H93        26.2670   27.5970   33.6190 H         1 UNK         0.0000 
     94 H94        27.6080   28.0700   32.5040 H         1 UNK         0.0000 
     95 O95        29.6150   26.6970   34.2390 O.2       1 UNK         0.0000 
@<TRIPOS>BOND
     1    1    2 1    
     2    1    4 1    
     3    1    3 1    
     4    1    5 1    
     5    5   14 1    
     6    5    6 1    
     7    5   10 1    
     8    6    8 1    
     9    6    7 1    
    10    6    9 1    
    11   10   13 1    
    12   10   11 1    
    13   10   12 1    
    14   14   15 1    
    15   15   17 am   BACKBONE|DICT|INTERRES
    16   15   16 2    
    17   17   19 1    
    18   17   18 1    
    19   19   25 1    
    20   19   24 1    
    21   19   20 1    
    22   20   23 2    
    23   20   21 am   BACKBONE|DICT|INTERRES
    24   21   58 1    
    25   21   22 1    
    26   25   28 1    
    27   25   26 1    
    28   25   27 1    
    29   28   33 ar   
    30   28   29 ar   
    31   29   30 ar   
    32   29   32 1    
    33   30   37 ar   
    34   30   31 1    
    35   33   35 ar   
    36   33   34 1    
    37   35   36 1    
    38   35   37 ar   
    39   37   38 1    
    40   38   39 1    
    41   39   40 ar   
    42   39   44 ar   
    43   40   41 ar   
    44   40   43 1    
    45   41   48 ar   
    46   41   42 1    
    47   44   46 ar   
    48   44   45 1    
    49   46   47 1    
    50   46   48 ar   
    51   48   49 1    
    52   49   50 2    
    53   49   51 1    
    54   51   53 1    
    55   51   52 1    
    56   51   54 1    
    57   54   55 1    
    58   54   56 am   BACKBONE|DICT|INTERRES
    59   56   57 2    
    60   56   58 1    
    61   58   59 1    
    62   58   60 1    
    63   60   62 1    
    64   60   61 1    
    65   60   63 1    
    66   63   65 1    
    67   63   64 1    
    68   63   66 1    
    69   66   71 1    
    70   66   67 1    
    71   66   72 1    
    72   67   69 1    
    73   67   68 1    
    74   67   70 1    
    75   72   73 1    
    76   72   74 1    
    77   72   75 1    
    78   76   77 1    
    79   76   80 1    
    80   76   78 1    
    81   76   79 1    
    82   80   85 2    
    83   80   81 1    
    84   81   84 1    
    85   81   82 1    
    86   81   83 1    
    87   86   89 1    
    88   86   88 1    
    89   86   90 1    
    90   86   87 1    
    91   90   95 2    
    92   90   91 1    
    93   91   93 1    
    94   91   92 1    
    95   91   94 1    
@<TRIPOS>SUBSTRUCTURE
     1 UNK         1 GROUP             0       ****    0 ROOT    
@<TRIPOS>MOLECULE
Cpd1-2500
95   95    1
SMALL
USER_CHARGES


@<TRIPOS>ATOM
      1 C1         34.5210   26.3010   25.3710 C.3       1 UNK         0.0000 
      2 H2         35.2000   26.1550   24.5220 H         1 UNK         0.0000 
      3 H3         34.9160   27.1460   25.9490 H         1 UNK         0.0000 
      4 H4         34.6240   25.3930   25.9780 H         1 UNK         0.0000 
      5 C5         33.0660   26.5850   24.9610 C.3       1 UNK         0.0000 
      6 C6         32.6300   25.4220   23.9110 C.3       1 UNK         0.0000 
      7 H7         31.5390   25.3130   23.9250 H         1 UNK         0.0000 
      8 H8         32.9060   25.6400   22.8720 H         1 UNK         0.0000 
      9 H9         32.9720   24.4000   24.1160 H         1 UNK         0.0000 
     10 C10        32.8590   27.8910   24.1660 C.3       1 UNK         0.0000 
     11 H11        32.6390   28.7770   24.7750 H         1 UNK         0.0000 
     12 H12        33.6720   28.1170   23.4650 H         1 UNK         0.0000 
     13 H13        32.0860   27.8000   23.3940 H         1 UNK         0.0000 
     14 O14        32.0880   26.4920   26.0420 O.3       1 UNK         0.0000 
     15 C15        32.2860   27.2430   27.1350 C.2       1 UNK         0.0000 
     16 O16        32.9560   28.2250   27.3980 O.2       1 UNK         0.0000 
     17 N17        31.1830   27.0010   27.9400 N.am      1 UNK         0.0000 
     18 H18        30.6300   26.2330   27.5790 H         1 UNK         0.0000 
     19 C19        30.7300   28.0300   28.9990 C.3       1 UNK         0.0000 
     20 C20        30.3200   27.3230   30.3690 C.2       1 UNK         0.0000 
     21 N21        31.4410   26.9350   31.0570 N.am      1 UNK         0.0000 
     22 H22        32.3260   27.3390   30.7770 H         1 UNK         0.0000 
     23 O23        29.1780   27.0300   30.7260 O.2       1 UNK         0.0000 
     24 H24        31.5990   28.6520   29.2490 H         1 UNK         0.0000 
     25 C25        29.5460   28.8960   28.4820 C.3       1 UNK         0.0000 
     26 H26        28.6940   28.2300   28.3010 H         1 UNK         0.0000 
     27 H27        29.8930   29.2970   27.5220 H         1 UNK         0.0000 
     28 C28        29.3430   30.0060   29.4590 C.ar      1 UNK         0.0000 
     29 C29        28.1150   30.1270   30.2020 C.ar      1 UNK         0.0000 
     30 C30        28.0840   31.1780   31.1890 C.ar      1 UNK         0.0000 
     31 H31        27.2200   31.2210   31.8450 H         1 UNK         0.0000 
     32 H32        27.4130   29.3010   30.1270 H         1 UNK         0.0000 
     33 C33        30.3300   30.9920   29.5620 C.ar      1 UNK         0.0000 
     34 H34        31.2470   30.8810   28.9900 H         1 UNK         0.0000 
     35 C35        30.3710   31.9620   30.5700 C.ar      1 UNK         0.0000 
     36 H36        31.2950   32.5250   30.6670 H         1 UNK         0.0000 
     37 C37        29.2030   31.9950   31.4230 C.ar      1 UNK         0.0000 
     38 O38        29.3420   32.5240   32.6950 O.3       1 UNK         0.0000 
     39 C39        30.2880   31.8800   33.4950 C.ar      1 UNK         0.0000 
     40 C40        31.5520   32.4000   33.6950 C.ar      1 UNK         0.0000 
     41 C41        32.5900   31.5600   34.1300 C.ar      1 UNK         0.0000 
     42 H42        33.6010   31.9390   34.2550 H         1 UNK         0.0000 
     43 H43        31.7460   33.4500   33.4980 H         1 UNK         0.0000 
     44 C44        30.0130   30.5620   33.8130 C.ar      1 UNK         0.0000 
     45 H45        28.9800   30.2340   33.7450 H         1 UNK         0.0000 
     46 C46        31.0150   29.6780   34.1970 C.ar      1 UNK         0.0000 
     47 H47        30.7230   28.6370   34.3020 H         1 UNK         0.0000 
     48 C48        32.3660   30.1570   34.2620 C.ar      1 UNK         0.0000 
     49 C49        33.5120   29.2500   34.6820 C.2       1 UNK         0.0000 
     50 O50        34.6100   29.6960   34.9510 O.2       1 UNK         0.0000 
     51 C51        33.3410   27.7740   34.6820 C.3       1 UNK         0.0000 
     52 H52        34.2640   27.2460   34.9520 H         1 UNK         0.0000 
     53 H53        32.6710   27.6390   35.5390 H         1 UNK         0.0000 
     54 N54        32.8290   27.1870   33.4130 N.am      1 UNK         0.0000 
     55 H55        32.9040   27.7640   32.5840 H         1 UNK         0.0000 
     56 C56        32.0780   26.0600   33.2950 C.2       1 UNK         0.0000 
     57 O57        31.9340   25.3250   34.2380 O.2       1 UNK         0.0000 
     58 C58        31.5260   25.7290   31.9120 C.3       1 UNK         0.0000 
     59 H59        30.4830   25.4690   32.1320 H         1 UNK         0.0000 
     60 C60        32.2660   24.5430   31.3870 C.3       1 UNK         0.0000 
     61 H61        32.1960   23.7650   32.1570 H         1 UNK         0.0000 
     62 H62        33.3480   24.7100   31.3160 H         1 UNK         0.0000 
     63 C63        31.6180   23.9280   30.1350 C.3       1 UNK         0.0000 
     64 H64        31.1170   22.9830   30.3780 H         1 UNK         0.0000 
     65 H65        30.8180   24.5060   29.6580 H         1 UNK         0.0000 
     66 C66        32.6330   23.7170   28.9490 C.3       1 UNK         0.0000 
     67 C67        33.6940   22.6560   29.1290 C.3       1 UNK         0.0000 
     68 H68        34.4550   22.9450   29.8640 H         1 UNK         0.0000 
     69 H69        33.2010   21.8640   29.7060 H         1 UNK         0.0000 
     70 H70        34.1620   22.3970   28.1720 H         1 UNK         0.0000 
     71 H71        33.0890   24.7100   28.8530 H         1 UNK         0.0000 
     72 C72        31.9340   23.4240   27.6530 C.3       1 UNK         0.0000 
     73 H73        32.6220   23.4160   26.7990 H         1 UNK         0.0000 
     74 H74        31.4730   22.4320   27.7300 H         1 UNK         0.0000 
     75 H75        31.1430   24.1730   27.5260 H         1 UNK         0.0000 
     76 C76        27.5570   22.7530   27.8090 C.3       1 UNK         0.0000 
     77 H77        27.1520   22.0810   28.5750 H         1 UNK         0.0000 
     78 H78        28.2910   22.3180   27.1190 H         1 UNK         0.0000 
     79 H79        26.5890   22.9950   27.3530 H         1 UNK         0.0000 
     80 S80        28.2930   24.1910   28.6410 S.3       1 UNK         0.0000 
     81 C81        26.8040   24.7000   29.5280 C.3       1 UNK         0.0000 
     82 H82        26.7230   24.0750   30.4250 H         1 UNK         0.0000 
     83 H83        25.8670   24.5740   28.9730 H         1 UNK         0.0000 
     84 H84        27.0240   25.6970   29.9290 H         1 UNK         0.0000 
     85 O85        28.4370   25.2210   27.5710 O.2       1 UNK         0.0000 
     86 C86        34.9020   30.8760   31.5220 C.3       1 UNK         0.0000 
     87 H87        35.8310   31.3790   31.2240 H         1 UNK         0.0000 
     88 H88        34.8180   31.0040   32.6080 H         1 UNK         0.0000 
     89 H89        33.9690   31.2360   31.0710 H         1 UNK         0.0000 
     90 S90        35.2250   29.0810   31.1320 S.3       1 UNK         0.0000 
     91 C91        35.6250   29.4360   29.3880 C.3       1 UNK         0.0000 
     92 H92        36.4730   30.1310   29.3440 H         1 UNK         0.0000 
     93 H93        34.7780   29.9780   28.9500 H         1 UNK         0.0000 
     94 H94        35.7550   28.5440   28.7630 H         1 UNK         0.0000 
     95 O95        33.7900   28.5950   31.0340 O.2       1 UNK         0.0000 
@<TRIPOS>BOND
     1    1    3 1    
     2    1    4 1    
     3    1    2 1    
     4    1    5 1    
     5    5   14 1    
     6    5    6 1    
     7    5   10 1    
     8    6    7 1    
     9    6    9 1    
    10    6    8 1    
    11   10   11 1    
    12   10   12 1    
    13   10   13 1    
    14   14   15 1    
    15   15   16 2    
    16   15   17 am   BACKBONE|DICT|INTERRES
    17   17   19 1    
    18   17   18 1    
    19   19   24 1    
    20   19   20 1    
    21   19   25 1    
    22   20   23 2    
    23   20   21 am   BACKBONE|DICT|INTERRES
    24   21   58 1    
    25   21   22 1    
    26   25   28 1    
    27   25   26 1    
    28   25   27 1    
    29   28   33 ar   
    30   28   29 ar   
    31   29   30 ar   
    32   29   32 1    
    33   30   37 ar   
    34   30   31 1    
    35   33   35 ar   
    36   33   34 1    
    37   35   36 1    
    38   35   37 ar   
    39   37   38 1    
    40   38   39 1    
    41   39   40 ar   
    42   39   44 ar   
    43   40   41 ar   
    44   40   43 1    
    45   41   42 1    
    46   41   48 ar   
    47   44   46 ar   
    48   44   45 1    
    49   46   48 ar   
    50   46   47 1    
    51   48   49 1    
    52   49   51 1    
    53   49   50 2    
    54   51   52 1    
    55   51   53 1    
    56   51   54 1    
    57   54   55 1    
    58   54   56 am   BACKBONE|DICT|INTERRES
    59   56   57 2    
    60   56   58 1    
    61   58   59 1    
    62   58   60 1    
    63   60   61 1    
    64   60   62 1    
    65   60   63 1    
    66   63   64 1    
    67   63   65 1    
    68   63   66 1    
    69   66   67 1    
    70   66   71 1    
    71   66   72 1    
    72   67   69 1    
    73   67   68 1    
    74   67   70 1    
    75   72   74 1    
    76   72   73 1    
    77   72   75 1    
    78   76   77 1    
    79   76   80 1    
    80   76   78 1    
    81   76   79 1    
    82   80   81 1    
    83   80   85 2    
    84   81   84 1    
    85   81   82 1    
    86   81   83 1    
    87   86   88 1    
    88   86   87 1    
    89   86   89 1    
    90   86   90 1    
    91   90   91 1    
    92   90   95 2    
    93   91   92 1    
    94   91   93 1    
    95   91   94 1    
@<TRIPOS>SUBSTRUCTURE
     1 UNK         1 GROUP             0       ****    0 ROOT    
@<TRIPOS>MOLECULE
Cpd1-3000
95   95    1
SMALL
USER_CHARGES


@<TRIPOS>ATOM
      1 C1         34.7610   27.3250   25.7840 C.3       1 UNK         0.0000 
      2 H2         35.1380   26.5270   26.4340 H         1 UNK         0.0000 
      3 H3         35.5200   27.4770   25.0070 H         1 UNK         0.0000 
      4 H4         34.7720   28.2910   26.3030 H         1 UNK         0.0000 
      5 C5         33.3950   27.0450   25.1420 C.3       1 UNK         0.0000 
      6 C6         33.4390   25.6860   24.3600 C.3       1 UNK         0.0000 
      7 H7         32.4760   25.7080   23.8360 H         1 UNK         0.0000 
      8 H8         34.3170   25.6460   23.7040 H         1 UNK         0.0000 
      9 H9         33.5370   24.8320   25.0410 H         1 UNK         0.0000 
     10 C10        33.1310   28.1610   24.2040 C.3       1 UNK         0.0000 
     11 H11        33.0980   29.0810   24.7990 H         1 UNK         0.0000 
     12 H12        34.0030   28.2510   23.5440 H         1 UNK         0.0000 
     13 H13        32.2860   28.0220   23.5200 H         1 UNK         0.0000 
     14 O14        32.3910   26.9410   26.1130 O.3       1 UNK         0.0000 
     15 C15        32.1030   27.8700   27.0780 C.2       1 UNK         0.0000 
     16 O16        32.6400   28.8900   27.4380 O.2       1 UNK         0.0000 
     17 N17        31.0720   27.3850   27.8280 N.am      1 UNK         0.0000 
     18 H18        30.5240   26.7300   27.2820 H         1 UNK         0.0000 
     19 C19        30.4420   28.0500   28.9820 C.3       1 UNK         0.0000 
     20 C20        30.2610   27.1160   30.1710 C.2       1 UNK         0.0000 
     21 N21        31.3520   26.9230   31.0160 N.am      1 UNK         0.0000 
     22 H22        32.1930   27.4540   30.8210 H         1 UNK         0.0000 
     23 O23        29.2430   26.3590   30.2380 O.2       1 UNK         0.0000 
     24 H24        31.0630   28.8170   29.4610 H         1 UNK         0.0000 
     25 C25        29.1860   28.8200   28.4550 C.3       1 UNK         0.0000 
     26 H26        28.3970   28.0600   28.4080 H         1 UNK         0.0000 
     27 H27        29.3900   29.3430   27.5130 H         1 UNK         0.0000 
     28 C28        28.8610   29.9270   29.3660 C.ar      1 UNK         0.0000 
     29 C29        28.1790   29.6990   30.5730 C.ar      1 UNK         0.0000 
     30 C30        28.2410   30.6840   31.5720 C.ar      1 UNK         0.0000 
     31 H31        27.6240   30.4760   32.4410 H         1 UNK         0.0000 
     32 H32        27.4800   28.8750   30.6810 H         1 UNK         0.0000 
     33 C33        29.5110   31.1570   29.1860 C.ar      1 UNK         0.0000 
     34 H34        30.1330   31.3180   28.3110 H         1 UNK         0.0000 
     35 C35        29.6200   32.1040   30.2900 C.ar      1 UNK         0.0000 
     36 H36        30.2180   32.9990   30.1450 H         1 UNK         0.0000 
     37 C37        28.9800   31.8100   31.4910 C.ar      1 UNK         0.0000 
     38 O38        29.3760   32.3430   32.7430 O.3       1 UNK         0.0000 
     39 C39        30.5960   31.7910   33.2560 C.ar      1 UNK         0.0000 
     40 C40        31.8910   32.3090   33.0780 C.ar      1 UNK         0.0000 
     41 C41        32.9180   31.4700   33.5180 C.ar      1 UNK         0.0000 
     42 H42        33.9590   31.7490   33.3820 H         1 UNK         0.0000 
     43 H43        32.1060   33.2770   32.6340 H         1 UNK         0.0000 
     44 C44        30.3700   30.5220   33.8240 C.ar      1 UNK         0.0000 
     45 H45        29.3330   30.2560   34.0040 H         1 UNK         0.0000 
     46 C46        31.4210   29.6890   34.1460 C.ar      1 UNK         0.0000 
     47 H47        31.2110   28.7080   34.5610 H         1 UNK         0.0000 
     48 C48        32.7160   30.1720   33.9920 C.ar      1 UNK         0.0000 
     49 C49        33.8620   29.3620   34.4050 C.2       1 UNK         0.0000 
     50 O50        34.9660   29.8930   34.5930 O.2       1 UNK         0.0000 
     51 C51        33.6570   27.8250   34.5410 C.3       1 UNK         0.0000 
     52 H52        34.6670   27.3970   34.5660 H         1 UNK         0.0000 
     53 H53        32.9970   27.5490   35.3730 H         1 UNK         0.0000 
     54 N54        33.0290   27.3120   33.2540 N.am      1 UNK         0.0000 
     55 H55        33.3940   27.5410   32.3380 H         1 UNK         0.0000 
     56 C56        32.1130   26.3280   33.2700 C.2       1 UNK         0.0000 
     57 O57        31.6580   25.7820   34.2500 O.2       1 UNK         0.0000 
     58 C58        31.5040   25.7970   31.9620 C.3       1 UNK         0.0000 
     59 H59        30.5220   25.3780   32.2100 H         1 UNK         0.0000 
     60 C60        32.3470   24.6840   31.2460 C.3       1 UNK         0.0000 
     61 H61        32.4130   23.9080   32.0180 H         1 UNK         0.0000 
     62 H62        33.3490   24.9340   30.8760 H         1 UNK         0.0000 
     63 C63        31.6530   24.0050   30.0230 C.3       1 UNK         0.0000 
     64 H64        30.6740   23.6360   30.3520 H         1 UNK         0.0000 
     65 H65        31.3530   24.7830   29.3090 H         1 UNK         0.0000 
     66 C66        32.3690   22.7250   29.4180 C.3       1 UNK         0.0000 
     67 C67        32.6140   21.7670   30.5400 C.3       1 UNK         0.0000 
     68 H68        33.3570   22.1640   31.2430 H         1 UNK         0.0000 
     69 H69        31.7070   21.7380   31.1560 H         1 UNK         0.0000 
     70 H70        32.8280   20.7370   30.2270 H         1 UNK         0.0000 
     71 H71        33.3010   23.1440   29.0200 H         1 UNK         0.0000 
     72 C72        31.5220   21.9540   28.3270 C.3       1 UNK         0.0000 
     73 H73        30.6600   21.3730   28.6760 H         1 UNK         0.0000 
     74 H74        31.2140   22.6200   27.5120 H         1 UNK         0.0000 
     75 H75        32.2070   21.2990   27.7760 H         1 UNK         0.0000 
     76 C76        29.1480   23.4430   25.0970 C.3       1 UNK         0.0000 
     77 H77        29.9900   23.4780   24.3950 H         1 UNK         0.0000 
     78 H78        28.1930   23.8350   24.7260 H         1 UNK         0.0000 
     79 H79        28.9850   22.4170   25.4470 H         1 UNK         0.0000 
     80 S80        29.6210   24.4490   26.5000 S.3       1 UNK         0.0000 
     81 C81        27.9900   24.2310   27.2180 C.3       1 UNK         0.0000 
     82 H82        27.9380   24.8980   28.0870 H         1 UNK         0.0000 
     83 H83        27.8750   23.1860   27.5310 H         1 UNK         0.0000 
     84 H84        27.1370   24.5160   26.5900 H         1 UNK         0.0000 
     85 O85        29.6060   25.8500   25.9560 O.2       1 UNK         0.0000 
     86 C86        35.5710   26.6180   29.6650 C.3       1 UNK         0.0000 
     87 H87        34.9000   26.2670   28.8710 H         1 UNK         0.0000 
     88 H88        35.3400   26.0450   30.5710 H         1 UNK         0.0000 
     89 H89        36.6190   26.6070   29.3430 H         1 UNK         0.0000 
     90 S90        35.0740   28.3720   30.0220 S.3       1 UNK         0.0000 
     91 C91        36.0790   28.6550   31.4440 C.3       1 UNK         0.0000 
     92 H92        36.3660   27.7000   31.9000 H         1 UNK         0.0000 
     93 H93        35.4460   29.2180   32.1410 H         1 UNK         0.0000 
     94 H94        36.9500   29.2980   31.2740 H         1 UNK         0.0000 
     95 O95        33.8620   28.2310   30.8050 O.2       1 UNK         0.0000 
@<TRIPOS>BOND
     1    1    4 1    
     2    1    2 1    
     3    1    3 1    
     4    1    5 1    
     5    5   14 1    
     6    5    6 1    
     7    5   10 1    
     8    6    9 1    
     9    6    7 1    
    10    6    8 1    
    11   10   11 1    
    12   10   12 1    
    13   10   13 1    
    14   14   15 1    
    15   15   16 2    
    16   15   17 am   BACKBONE|DICT|INTERRES
    17   17   19 1    
    18   17   18 1    
    19   19   24 1    
    20   19   20 1    
    21   19   25 1    
    22   20   23 2    
    23   20   21 am   BACKBONE|DICT|INTERRES
    24   21   58 1    
    25   21   22 1    
    26   25   28 1    
    27   25   26 1    
    28   25   27 1    
    29   28   29 ar   
    30   28   33 ar   
    31   29   32 1    
    32   29   30 ar   
    33   30   31 1    
    34   30   37 ar   
    35   33   35 ar   
    36   33   34 1    
    37   35   37 ar   
    38   35   36 1    
    39   37   38 1    
    40   38   39 1    
    41   39   44 ar   
    42   39   40 ar   
    43   40   41 ar   
    44   40   43 1    
    45   41   48 ar   
    46   41   42 1    
    47   44   45 1    
    48   44   46 ar   
    49   46   47 1    
    50   46   48 ar   
    51   48   49 1    
    52   49   51 1    
    53   49   50 2    
    54   51   52 1    
    55   51   53 1    
    56   51   54 1    
    57   54   56 am   BACKBONE|DICT|INTERRES
    58   54   55 1    
    59   56   57 2    
    60   56   58 1    
    61   58   59 1    
    62   58   60 1    
    63   60   61 1    
    64   60   62 1    
    65   60   63 1    
    66   63   64 1    
    67   63   65 1    
    68   63   66 1    
    69   66   67 1    
    70   66   71 1    
    71   66   72 1    
    72   67   69 1    
    73   67   68 1    
    74   67   70 1    
    75   72   73 1    
    76   72   74 1    
    77   72   75 1    
    78   76   79 1    
    79   76   80 1    
    80   76   77 1    
    81   76   78 1    
    82   80   81 1    
    83   80   85 2    
    84   81   83 1    
    85   81   82 1    
    86   81   84 1    
    87   86   90 1    
    88   86   88 1    
    89   86   87 1    
    90   86   89 1    
    91   90   95 2    
    92   90   91 1    
    93   91   92 1    
    94   91   93 1    
    95   91   94 1    
@<TRIPOS>SUBSTRUCTURE
     1 UNK         1 GROUP             0       ****    0 ROOT    
@<TRIPOS>MOLECULE
Cpd1-3500
95   95    1
SMALL
USER_CHARGES


@<TRIPOS>ATOM
      1 C1         33.4580   24.9430   25.1730 C.3       1 UNK         0.0000 
      2 H2         34.3900   25.0610   25.7390 H         1 UNK         0.0000 
      3 H3         32.8130   24.4130   25.8850 H         1 UNK         0.0000 
      4 H4         33.7210   24.1600   24.4510 H         1 UNK         0.0000 
      5 C5         32.8550   26.1740   24.5640 C.3       1 UNK         0.0000 
      6 C6         32.1450   25.8430   23.2440 C.3       1 UNK         0.0000 
      7 H7         31.3960   25.0450   23.3200 H         1 UNK         0.0000 
      8 H8         31.7060   26.7760   22.8710 H         1 UNK         0.0000 
      9 H9         32.8410   25.4690   22.4840 H         1 UNK         0.0000 
     10 C10        33.8850   27.1760   24.2280 C.3       1 UNK         0.0000 
     11 H11        34.5240   26.6100   23.5400 H         1 UNK         0.0000 
     12 H12        33.4630   28.0550   23.7250 H         1 UNK         0.0000 
     13 H13        34.5000   27.3830   25.1130 H         1 UNK         0.0000 
     14 O14        31.7900   26.7210   25.4420 O.3       1 UNK         0.0000 
     15 C15        32.0630   27.1960   26.6950 C.2       1 UNK         0.0000 
     16 O16        33.0940   27.4130   27.2600 O.2       1 UNK         0.0000 
     17 N17        30.8790   27.7400   27.1320 N.am      1 UNK         0.0000 
     18 H18        30.0960   27.4800   26.5450 H         1 UNK         0.0000 
     19 C19        30.6090   28.4510   28.4200 C.3       1 UNK         0.0000 
     20 C20        30.6930   27.5400   29.6640 C.2       1 UNK         0.0000 
     21 N21        31.8690   27.3620   30.3010 N.am      1 UNK         0.0000 
     22 H22        32.7150   27.8230   29.9890 H         1 UNK         0.0000 
     23 O23        29.6880   27.0030   30.1240 O.2       1 UNK         0.0000 
     24 H24        31.3850   29.2040   28.6050 H         1 UNK         0.0000 
     25 C25        29.2860   29.2640   28.1820 C.3       1 UNK         0.0000 
     26 H26        28.4080   28.6610   27.9200 H         1 UNK         0.0000 
     27 H27        29.4840   29.9640   27.3610 H         1 UNK         0.0000 
     28 C28        29.1020   30.2500   29.3930 C.ar      1 UNK         0.0000 
     29 C29        28.4710   29.8800   30.5450 C.ar      1 UNK         0.0000 
     30 C30        28.5330   30.6160   31.7770 C.ar      1 UNK         0.0000 
     31 H31        28.0290   30.3430   32.6990 H         1 UNK         0.0000 
     32 H32        28.1070   28.8580   30.6030 H         1 UNK         0.0000 
     33 C33        29.7600   31.4900   29.3430 C.ar      1 UNK         0.0000 
     34 H34        30.1630   31.8130   28.3870 H         1 UNK         0.0000 
     35 C35        29.8080   32.2240   30.5010 C.ar      1 UNK         0.0000 
     36 H36        30.3220   33.1780   30.4340 H         1 UNK         0.0000 
     37 C37        29.2540   31.7730   31.7080 C.ar      1 UNK         0.0000 
     38 O38        29.5080   32.5020   32.8860 O.3       1 UNK         0.0000 
     39 C39        30.4500   31.9500   33.7230 C.ar      1 UNK         0.0000 
     40 C40        31.7100   31.4600   33.2160 C.ar      1 UNK         0.0000 
     41 C41        32.4550   30.4440   33.8620 C.ar      1 UNK         0.0000 
     42 H42        33.3460   30.0870   33.3530 H         1 UNK         0.0000 
     43 H43        32.1470   31.8900   32.3200 H         1 UNK         0.0000 
     44 C44        30.0830   31.4650   34.9700 C.ar      1 UNK         0.0000 
     45 H45        29.1140   31.7190   35.3900 H         1 UNK         0.0000 
     46 C46        30.8220   30.3890   35.6810 C.ar      1 UNK         0.0000 
     47 H47        30.3660   29.9010   36.5370 H         1 UNK         0.0000 
     48 C48        31.9980   29.8330   35.0820 C.ar      1 UNK         0.0000 
     49 C49        32.7010   28.5970   35.7210 C.2       1 UNK         0.0000 
     50 O50        32.4630   28.3360   36.8750 O.2       1 UNK         0.0000 
     51 C51        33.6290   27.7510   34.8500 C.3       1 UNK         0.0000 
     52 H52        34.3110   28.4880   34.4080 H         1 UNK         0.0000 
     53 H53        34.2000   27.0370   35.4550 H         1 UNK         0.0000 
     54 N54        32.8230   27.0730   33.7470 N.am      1 UNK         0.0000 
     55 H55        32.1260   26.3770   33.9840 H         1 UNK         0.0000 
     56 C56        33.0370   27.2270   32.3860 C.2       1 UNK         0.0000 
     57 O57        33.9240   27.9410   32.0020 O.2       1 UNK         0.0000 
     58 C58        32.1100   26.5130   31.4530 C.3       1 UNK         0.0000 
     59 H59        31.1870   26.3750   32.0280 H         1 UNK         0.0000 
     60 C60        32.7450   25.1730   31.0820 C.3       1 UNK         0.0000 
     61 H61        32.8120   24.5580   31.9880 H         1 UNK         0.0000 
     62 H62        33.8110   25.3410   30.8880 H         1 UNK         0.0000 
     63 C63        32.2250   24.4280   29.7950 C.3       1 UNK         0.0000 
     64 H64        31.1380   24.3260   29.9000 H         1 UNK         0.0000 
     65 H65        32.3910   24.9700   28.8550 H         1 UNK         0.0000 
     66 C66        32.7860   22.9780   29.5690 C.3       1 UNK         0.0000 
     67 C67        32.5230   22.0640   30.8120 C.3       1 UNK         0.0000 
     68 H68        33.0970   22.3530   31.7000 H         1 UNK         0.0000 
     69 H69        31.4720   22.1080   31.1230 H         1 UNK         0.0000 
     70 H70        32.7340   21.0180   30.5570 H         1 UNK         0.0000 
     71 H71        33.8730   22.9600   29.4230 H         1 UNK         0.0000 
     72 C72        32.1580   22.5030   28.2690 C.3       1 UNK         0.0000 
     73 H73        32.4040   21.4600   28.0340 H         1 UNK         0.0000 
     74 H74        31.0650   22.5650   28.3350 H         1 UNK         0.0000 
     75 H75        32.5810   23.1160   27.4630 H         1 UNK         0.0000 
     76 C76        28.6560   27.2540   33.2230 C.3       1 UNK         0.0000 
     77 H77        29.5220   27.9270   33.2170 H         1 UNK         0.0000 
     78 H78        27.7400   27.8180   33.4390 H         1 UNK         0.0000 
     79 H79        28.5970   26.6970   32.2800 H         1 UNK         0.0000 
     80 S80        28.9300   25.8740   34.3900 S.3       1 UNK         0.0000 
     81 C81        28.4710   26.8010   35.9720 C.3       1 UNK         0.0000 
     82 H82        27.4340   27.1560   35.9270 H         1 UNK         0.0000 
     83 H83        29.1520   27.6360   36.1770 H         1 UNK         0.0000 
     84 H84        28.5930   26.0140   36.7260 H         1 UNK         0.0000 
     85 O85        30.3390   25.4010   34.3180 O.2       1 UNK         0.0000 
     86 C86        28.0460   25.5940   27.5290 C.3       1 UNK         0.0000 
     87 H87        27.6030   26.5010   27.9600 H         1 UNK         0.0000 
     88 H88        29.1100   25.4910   27.7730 H         1 UNK         0.0000 
     89 H89        27.4500   24.7260   27.8360 H         1 UNK         0.0000 
     90 S90        27.9520   25.7820   25.6910 S.3       1 UNK         0.0000 
     91 C91        29.2940   24.5600   25.4510 C.3       1 UNK         0.0000 
     92 H92        28.9110   23.5970   25.8110 H         1 UNK         0.0000 
     93 H93        30.2770   24.8250   25.8580 H         1 UNK         0.0000 
     94 H94        29.4290   24.5560   24.3620 H         1 UNK         0.0000 
     95 O95        28.5540   27.1620   25.5930 O.2       1 UNK         0.0000 
@<TRIPOS>BOND
     1    1    2 1    
     2    1    3 1    
     3    1    4 1    
     4    1    5 1    
     5    5   14 1    
     6    5    6 1    
     7    5   10 1    
     8    6    7 1    
     9    6    8 1    
    10    6    9 1    
    11   10   13 1    
    12   10   11 1    
    13   10   12 1    
    14   14   15 1    
    15   15   17 am   BACKBONE|DICT|INTERRES
    16   15   16 2    
    17   17   19 1    
    18   17   18 1    
    19   19   24 1    
    20   19   20 1    
    21   19   25 1    
    22   20   23 2    
    23   20   21 am   BACKBONE|DICT|INTERRES
    24   21   58 1    
    25   21   22 1    
    26   25   28 1    
    27   25   26 1    
    28   25   27 1    
    29   28   29 ar   
    30   28   33 ar   
    31   29   32 1    
    32   29   30 ar   
    33   30   31 1    
    34   30   37 ar   
    35   33   35 ar   
    36   33   34 1    
    37   35   37 ar   
    38   35   36 1    
    39   37   38 1    
    40   38   39 1    
    41   39   44 ar   
    42   39   40 ar   
    43   40   41 ar   
    44   40   43 1    
    45   41   48 ar   
    46   41   42 1    
    47   44   45 1    
    48   44   46 ar   
    49   46   47 1    
    50   46   48 ar   
    51   48   49 1    
    52   49   50 2    
    53   49   51 1    
    54   51   53 1    
    55   51   52 1    
    56   51   54 1    
    57   54   55 1    
    58   54   56 am   BACKBONE|DICT|INTERRES
    59   56   57 2    
    60   56   58 1    
    61   58   59 1    
    62   58   60 1    
    63   60   61 1    
    64   60   62 1    
    65   60   63 1    
    66   63   64 1    
    67   63   65 1    
    68   63   66 1    
    69   66   67 1    
    70   66   71 1    
    71   66   72 1    
    72   67   69 1    
    73   67   68 1    
    74   67   70 1    
    75   72   74 1    
    76   72   73 1    
    77   72   75 1    
    78   76   78 1    
    79   76   80 1    
    80   76   77 1    
    81   76   79 1    
    82   80   81 1    
    83   80   85 2    
    84   81   83 1    
    85   81   84 1    
    86   81   82 1    
    87   86   88 1    
    88   86   89 1    
    89   86   87 1    
    90   86   90 1    
    91   90   91 1    
    92   90   95 2    
    93   91   92 1    
    94   91   93 1    
    95   91   94 1    
@<TRIPOS>SUBSTRUCTURE
     1 UNK         1 GROUP             0       ****    0 ROOT    
@<TRIPOS>MOLECULE
Cpd1-4000
95   95    1
SMALL
USER_CHARGES


@<TRIPOS>ATOM
      1 C1         32.9290   25.3710   25.0340 C.3       1 UNK         0.0000 
      2 H2         31.9530   24.9010   25.2050 H         1 UNK         0.0000 
      3 H3         33.6170   24.7460   24.4500 H         1 UNK         0.0000 
      4 H4         33.3500   25.6370   26.0110 H         1 UNK         0.0000 
      5 C5         32.5250   26.6450   24.3650 C.3       1 UNK         0.0000 
      6 C6         31.8420   26.3880   23.0540 C.3       1 UNK         0.0000 
      7 H7         31.5410   27.2880   22.5050 H         1 UNK         0.0000 
      8 H8         32.5420   25.9100   22.3570 H         1 UNK         0.0000 
      9 H9         31.0410   25.6590   23.2260 H         1 UNK         0.0000 
     10 C10        33.8080   27.5050   24.1190 C.3       1 UNK         0.0000 
     11 H11        33.6940   28.4930   23.6560 H         1 UNK         0.0000 
     12 H12        34.4320   27.5960   25.0160 H         1 UNK         0.0000 
     13 H13        34.5040   26.9890   23.4460 H         1 UNK         0.0000 
     14 O14        31.5340   27.2950   25.0590 O.3       1 UNK         0.0000 
     15 C15        31.7620   27.8290   26.2270 C.2       1 UNK         0.0000 
     16 O16        32.7930   27.8180   26.9250 O.2       1 UNK         0.0000 
     17 N17        30.5760   28.1490   26.7330 N.am      1 UNK         0.0000 
     18 H18        29.7540   27.9090   26.1920 H         1 UNK         0.0000 
     19 C19        30.4290   28.8120   28.0300 C.3       1 UNK         0.0000 
     20 C20        30.4570   27.7920   29.1710 C.2       1 UNK         0.0000 
     21 N21        31.7000   27.4320   29.6740 N.am      1 UNK         0.0000 
     22 H22        32.4860   27.9930   29.3700 H         1 UNK         0.0000 
     23 O23        29.4700   27.1680   29.5640 O.2       1 UNK         0.0000 
     24 H24        31.3210   29.4330   28.1820 H         1 UNK         0.0000 
     25 C25        29.1950   29.7030   28.0190 C.3       1 UNK         0.0000 
     26 H26        28.3290   29.1110   27.6990 H         1 UNK         0.0000 
     27 H27        29.3410   30.3610   27.1540 H         1 UNK         0.0000 
     28 C28        29.0940   30.4780   29.3210 C.ar      1 UNK         0.0000 
     29 C29        28.4480   30.0440   30.4120 C.ar      1 UNK         0.0000 
     30 C30        28.5630   30.7290   31.6040 C.ar      1 UNK         0.0000 
     31 H31        27.9990   30.3560   32.4530 H         1 UNK         0.0000 
     32 H32        27.7890   29.1820   30.4230 H         1 UNK         0.0000 
     33 C33        29.8510   31.6800   29.3990 C.ar      1 UNK         0.0000 
     34 H34        30.2600   32.0690   28.4720 H         1 UNK         0.0000 
     35 C35        30.0340   32.4040   30.6060 C.ar      1 UNK         0.0000 
     36 H36        30.5130   33.3790   30.6110 H         1 UNK         0.0000 
     37 C37        29.3510   31.8780   31.7370 C.ar      1 UNK         0.0000 
     38 O38        29.6690   32.2540   33.0210 O.3       1 UNK         0.0000 
     39 C39        30.5460   31.4260   33.7030 C.ar      1 UNK         0.0000 
     40 C40        31.7660   31.0780   33.1490 C.ar      1 UNK         0.0000 
     41 C41        32.5510   30.0130   33.6620 C.ar      1 UNK         0.0000 
     42 H42        33.4680   29.7240   33.1590 H         1 UNK         0.0000 
     43 H43        32.0670   31.6630   32.2850 H         1 UNK         0.0000 
     44 C44        30.1100   30.8160   34.8780 C.ar      1 UNK         0.0000 
     45 H45        29.1780   30.9910   35.4080 H         1 UNK         0.0000 
     46 C46        30.8680   29.7480   35.4130 C.ar      1 UNK         0.0000 
     47 H47        30.4300   29.2870   36.2930 H         1 UNK         0.0000 
     48 C48        32.0740   29.2920   34.8090 C.ar      1 UNK         0.0000 
     49 C49        32.8800   28.1890   35.3250 C.2       1 UNK         0.0000 
     50 O50        32.9300   27.9560   36.5760 O.2       1 UNK         0.0000 
     51 C51        33.6500   27.3920   34.2880 C.3       1 UNK         0.0000 
     52 H52        34.5480   27.9500   33.9920 H         1 UNK         0.0000 
     53 H53        33.8540   26.4430   34.7970 H         1 UNK         0.0000 
     54 N54        32.6810   27.0950   33.2150 N.am      1 UNK         0.0000 
     55 H55        31.7420   26.8250   33.4820 H         1 UNK         0.0000 
     56 C56        32.9980   27.1400   31.8730 C.2       1 UNK         0.0000 
     57 O57        34.0810   27.6320   31.4840 O.2       1 UNK         0.0000 
     58 C58        31.9150   26.5380   30.9320 C.3       1 UNK         0.0000 
     59 H59        30.9890   26.6730   31.5040 H         1 UNK         0.0000 
     60 C60        32.1790   24.9750   30.7050 C.3       1 UNK         0.0000 
     61 H61        32.9260   24.8390   29.9130 H         1 UNK         0.0000 
     62 H62        31.2310   24.6240   30.2790 H         1 UNK         0.0000 
     63 C63        32.4940   24.1440   31.9550 C.3       1 UNK         0.0000 
     64 H64        33.3200   24.5680   32.5390 H         1 UNK         0.0000 
     65 H65        31.6400   24.1360   32.6440 H         1 UNK         0.0000 
     66 C66        32.8070   22.6150   31.5820 C.3       1 UNK         0.0000 
     67 C67        34.3100   22.5250   31.2570 C.3       1 UNK         0.0000 
     68 H68        34.5370   21.5160   30.8930 H         1 UNK         0.0000 
     69 H69        34.6210   23.2530   30.4970 H         1 UNK         0.0000 
     70 H70        34.9010   22.6770   32.1680 H         1 UNK         0.0000 
     71 H71        32.1830   22.3000   30.7370 H         1 UNK         0.0000 
     72 C72        32.5220   21.7350   32.7960 C.3       1 UNK         0.0000 
     73 H73        31.4390   21.6120   32.9130 H         1 UNK         0.0000 
     74 H74        32.8820   20.7050   32.6820 H         1 UNK         0.0000 
     75 H75        32.9540   22.1880   33.6970 H         1 UNK         0.0000 
     76 C76        27.5310   27.3830   23.0630 C.3       1 UNK         0.0000 
     77 H77        26.5950   26.8100   23.0800 H         1 UNK         0.0000 
     78 H78        28.4230   26.7590   22.9280 H         1 UNK         0.0000 
     79 H79        27.5120   28.0520   22.1950 H         1 UNK         0.0000 
     80 S80        27.6180   28.5480   24.5090 S.3       1 UNK         0.0000 
     81 C81        29.1200   29.3650   23.9860 C.3       1 UNK         0.0000 
     82 H82        29.4140   29.9180   24.8870 H         1 UNK         0.0000 
     83 H83        29.0020   30.0260   23.1190 H         1 UNK         0.0000 
     84 H84        29.9440   28.6740   23.7720 H         1 UNK         0.0000 
     85 O85        27.9190   27.5170   25.6050 O.2       1 UNK         0.0000 
     86 C86        28.0470   26.6350   32.7840 C.3       1 UNK         0.0000 
     87 H87        27.0520   26.2310   32.5620 H         1 UNK         0.0000 
     88 H88        28.5400   26.9810   31.8670 H         1 UNK         0.0000 
     89 H89        27.9040   27.4020   33.5550 H         1 UNK         0.0000 
     90 S90        28.8540   25.2700   33.6270 S.3       1 UNK         0.0000 
     91 C91        28.0390   25.7260   35.1930 C.3       1 UNK         0.0000 
     92 H92        28.3450   26.7460   35.4560 H         1 UNK         0.0000 
     93 H93        28.2990   25.0730   36.0350 H         1 UNK         0.0000 
     94 H94        26.9530   25.5970   35.1090 H         1 UNK         0.0000 
     95 O95        30.1960   25.7900   33.9780 O.2       1 UNK         0.0000 
@<TRIPOS>BOND
     1    1    2 1    
     2    1    4 1    
     3    1    3 1    
     4    1    5 1    
     5    5   14 1    
     6    5    6 1    
     7    5   10 1    
     8    6    9 1    
     9    6    7 1    
    10    6    8 1    
    11   10   12 1    
    12   10   11 1    
    13   10   13 1    
    14   14   15 1    
    15   15   17 am   BACKBONE|DICT|INTERRES
    16   15   16 2    
    17   17   19 1    
    18   17   18 1    
    19   19   24 1    
    20   19   20 1    
    21   19   25 1    
    22   20   23 2    
    23   20   21 am   BACKBONE|DICT|INTERRES
    24   21   58 1    
    25   21   22 1    
    26   25   28 1    
    27   25   26 1    
    28   25   27 1    
    29   28   33 ar   
    30   28   29 ar   
    31   29   32 1    
    32   29   30 ar   
    33   30   37 ar   
    34   30   31 1    
    35   33   35 ar   
    36   33   34 1    
    37   35   36 1    
    38   35   37 ar   
    39   37   38 1    
    40   38   39 1    
    41   39   44 ar   
    42   39   40 ar   
    43   40   41 ar   
    44   40   43 1    
    45   41   48 ar   
    46   41   42 1    
    47   44   45 1    
    48   44   46 ar   
    49   46   47 1    
    50   46   48 ar   
    51   48   49 1    
    52   49   50 2    
    53   49   51 1    
    54   51   53 1    
    55   51   52 1    
    56   51   54 1    
    57   54   55 1    
    58   54   56 am   BACKBONE|DICT|INTERRES
    59   56   57 2    
    60   56   58 1    
    61   58   59 1    
    62   58   60 1    
    63   60   63 1    
    64   60   61 1    
    65   60   62 1    
    66   63   64 1    
    67   63   65 1    
    68   63   66 1    
    69   66   72 1    
    70   66   67 1    
    71   66   71 1    
    72   67   70 1    
    73   67   68 1    
    74   67   69 1    
    75   72   73 1    
    76   72   75 1    
    77   72   74 1    
    78   76   77 1    
    79   76   80 1    
    80   76   78 1    
    81   76   79 1    
    82   80   85 2    
    83   80   81 1    
    84   81   82 1    
    85   81   83 1    
    86   81   84 1    
    87   86   89 1    
    88   86   90 1    
    89   86   87 1    
    90   86   88 1    
    91   90   95 2    
    92   90   91 1    
    93   91   92 1    
    94   91   93 1    
    95   91   94 1    
@<TRIPOS>SUBSTRUCTURE
     1 UNK         1 GROUP             0       ****    0 ROOT    
@<TRIPOS>MOLECULE
Cpd1-4500-MEC
95   95    1
SMALL
USER_CHARGES


@<TRIPOS>ATOM
      1 C1         33.3220   24.8440   25.6050 C.3       1 UNK         0.0000 
      2 H2         34.4100   24.8890   25.7400 H         1 UNK         0.0000 
      3 H3         32.9660   24.7400   26.6370 H         1 UNK         0.0000 
      4 H4         32.9830   23.9500   25.0670 H         1 UNK         0.0000 
      5 C5         32.8740   26.1400   24.8820 C.3       1 UNK         0.0000 
      6 C6         32.2210   25.6970   23.5560 C.3       1 UNK         0.0000 
      7 H7         32.7430   24.8930   23.0230 H         1 UNK         0.0000 
      8 H8         31.1780   25.3680   23.6370 H         1 UNK         0.0000 
      9 H9         32.2630   26.5920   22.9240 H         1 UNK         0.0000 
     10 C10        33.9880   27.2020   24.6880 C.3       1 UNK         0.0000 
     11 H11        34.7290   26.8250   23.9730 H         1 UNK         0.0000 
     12 H12        33.7340   28.2380   24.4310 H         1 UNK         0.0000 
     13 H13        34.5260   27.3250   25.6350 H         1 UNK         0.0000 
     14 O14        31.7300   26.8090   25.4870 O.3       1 UNK         0.0000 
     15 C15        31.8620   27.2420   26.7550 C.2       1 UNK         0.0000 
     16 O16        32.8160   27.1850   27.4290 O.2       1 UNK         0.0000 
     17 N17        30.6590   27.6810   27.1800 N.am      1 UNK         0.0000 
     18 H18        29.9580   27.7590   26.4530 H         1 UNK         0.0000 
     19 C19        30.3300   28.4750   28.3790 C.3       1 UNK         0.0000 
     20 C20        30.2460   27.6310   29.6780 C.2       1 UNK         0.0000 
     21 N21        31.4490   27.2020   30.1710 N.am      1 UNK         0.0000 
     22 H22        32.1930   27.2590   29.4860 H         1 UNK         0.0000 
     23 O23        29.2150   27.2530   30.1910 O.2       1 UNK         0.0000 
     24 H24        31.2250   29.0900   28.5320 H         1 UNK         0.0000 
     25 C25        29.2330   29.5380   28.1860 C.3       1 UNK         0.0000 
     26 H26        28.2290   29.0980   28.1340 H         1 UNK         0.0000 
     27 H27        29.3100   30.0680   27.2290 H         1 UNK         0.0000 
     28 C28        29.2210   30.5370   29.3380 C.ar      1 UNK         0.0000 
     29 C29        28.7470   30.2240   30.6160 C.ar      1 UNK         0.0000 
     30 C30        28.7680   31.0190   31.7370 C.ar      1 UNK         0.0000 
     31 H31        28.4430   30.5990   32.6840 H         1 UNK         0.0000 
     32 H32        28.2380   29.2830   30.8050 H         1 UNK         0.0000 
     33 C33        29.9070   31.7970   29.2560 C.ar      1 UNK         0.0000 
     34 H34        30.3650   32.2280   28.3710 H         1 UNK         0.0000 
     35 C35        30.1090   32.5110   30.4260 C.ar      1 UNK         0.0000 
     36 H36        30.6940   33.4260   30.4570 H         1 UNK         0.0000 
     37 C37        29.5920   32.1150   31.6400 C.ar      1 UNK         0.0000 
     38 O38        30.0980   32.7390   32.7540 O.3       1 UNK         0.0000 
     39 C39        30.8080   31.9450   33.6030 C.ar      1 UNK         0.0000 
     40 C40        31.7600   31.0860   33.0080 C.ar      1 UNK         0.0000 
     41 C41        32.2940   29.9980   33.7540 C.ar      1 UNK         0.0000 
     42 H42        33.0920   29.4340   33.2810 H         1 UNK         0.0000 
     43 H43        32.2640   31.1900   32.0520 H         1 UNK         0.0000 
     44 C44        30.2800   31.6600   34.9190 C.ar      1 UNK         0.0000 
     45 H45        29.5140   32.2790   35.3770 H         1 UNK         0.0000 
     46 C46        30.8630   30.5720   35.6330 C.ar      1 UNK         0.0000 
     47 H47        30.4740   30.3510   36.6230 H         1 UNK         0.0000 
     48 C48        31.8700   29.7310   35.0520 C.ar      1 UNK         0.0000 
     49 C49        32.2730   28.4350   35.6440 C.2       1 UNK         0.0000 
     50 O50        31.9940   28.2910   36.8620 O.2       1 UNK         0.0000 
     51 C51        32.8940   27.3140   34.7980 C.3       1 UNK         0.0000 
     52 H52        33.8980   27.6420   34.5040 H         1 UNK         0.0000 
     53 H53        32.9710   26.4450   35.4630 H         1 UNK         0.0000 
     54 N54        32.1110   26.8160   33.6770 N.am      1 UNK         0.0000 
     55 H55        31.1630   26.4630   33.7310 H         1 UNK         0.0000 
     56 C56        32.6220   26.8640   32.4110 C.2       1 UNK         0.0000 
     57 O57        33.6870   27.3710   32.1190 O.2       1 UNK         0.0000 
     58 C58        31.6410   26.2680   31.3600 C.3       1 UNK         0.0000 
     59 H59        30.6550   26.3000   31.8400 H         1 UNK         0.0000 
     60 C60        31.9620   24.8150   30.8510 C.3       1 UNK         0.0000 
     61 H61        31.0450   24.4460   30.3750 H         1 UNK         0.0000 
     62 H62        31.9530   24.3040   31.8220 H         1 UNK         0.0000 
     63 C63        33.2500   24.5300   30.0560 C.3       1 UNK         0.0000 
     64 H64        33.2020   25.0150   29.0730 H         1 UNK         0.0000 
     65 H65        34.0760   25.0230   30.5840 H         1 UNK         0.0000 
     66 C66        33.5090   23.0010   29.8500 C.3       1 UNK         0.0000 
     67 C67        32.3880   22.3140   29.1190 C.3       1 UNK         0.0000 
     68 H68        32.2050   22.8010   28.1530 H         1 UNK         0.0000 
     69 H69        32.6700   21.2680   28.9450 H         1 UNK         0.0000 
     70 H70        31.4350   22.2780   29.6620 H         1 UNK         0.0000 
     71 H71        33.6890   22.5200   30.8190 H         1 UNK         0.0000 
     72 C72        34.8050   22.8310   29.0080 C.3       1 UNK         0.0000 
     73 H73        35.6920   23.2470   29.5020 H         1 UNK         0.0000 
     74 H74        34.9690   21.7620   28.8290 H         1 UNK         0.0000 
     75 H75        34.6310   23.2540   28.0100 H         1 UNK         0.0000 
     76 C76        28.5720   27.9620   34.7210 C.3       1 UNK         0.0000 
     77 H77        28.1990   28.3610   33.7700 H         1 UNK         0.0000 
     78 H78        29.6570   28.0600   34.8540 H         1 UNK         0.0000 
     79 H79        28.0340   28.5300   35.4900 H         1 UNK         0.0000 
     80 S80        28.3660   26.1350   34.8210 S.3       1 UNK         0.0000 
     81 C81        28.8380   26.0970   36.5600 C.3       1 UNK         0.0000 
     82 H82        28.0570   26.4610   37.2390 H         1 UNK         0.0000 
     83 H83        29.7540   26.6890   36.6750 H         1 UNK         0.0000 
     84 H84        29.0480   25.0350   36.7330 H         1 UNK         0.0000 
     85 O85        29.5780   25.6470   34.0450 O.2       1 UNK         0.0000 
     86 C86        27.9640   26.2380   22.2280 C.3       1 UNK         0.0000 
     87 H87        29.0130   25.9950   22.0180 H         1 UNK         0.0000 
     88 H88        27.5380   26.3560   21.2240 H         1 UNK         0.0000 
     89 H89        27.3460   25.5110   22.7690 H         1 UNK         0.0000 
     90 S90        27.9520   27.8830   23.0320 S.3       1 UNK         0.0000 
     91 C91        29.1060   28.6410   21.9290 C.3       1 UNK         0.0000 
     92 H92        28.8200   28.4620   20.8860 H         1 UNK         0.0000 
     93 H93        30.0860   28.1850   22.1180 H         1 UNK         0.0000 
     94 H94        29.0660   29.7330   22.0220 H         1 UNK         0.0000 
     95 O95        28.6260   27.7780   24.4190 O.2       1 UNK         0.0000 
@<TRIPOS>BOND
     1    1    2 1    
     2    1    3 1    
     3    1    4 1    
     4    1    5 1    
     5    5   14 1    
     6    5    6 1    
     7    5   10 1    
     8    6    8 1    
     9    6    7 1    
    10    6    9 1    
    11   10   13 1    
    12   10   11 1    
    13   10   12 1    
    14   14   15 1    
    15   15   17 am   BACKBONE|DICT|INTERRES
    16   15   16 2    
    17   17   19 1    
    18   17   18 1    
    19   19   24 1    
    20   19   20 1    
    21   19   25 1    
    22   20   21 am   BACKBONE|DICT|INTERRES
    23   20   23 2    
    24   21   58 1    
    25   21   22 1    
    26   25   28 1    
    27   25   26 1    
    28   25   27 1    
    29   28   29 ar   
    30   28   33 ar   
    31   29   32 1    
    32   29   30 ar   
    33   30   31 1    
    34   30   37 ar   
    35   33   35 ar   
    36   33   34 1    
    37   35   36 1    
    38   35   37 ar   
    39   37   38 1    
    40   38   39 1    
    41   39   44 ar   
    42   39   40 ar   
    43   40   41 ar   
    44   40   43 1    
    45   41   48 ar   
    46   41   42 1    
    47   44   45 1    
    48   44   46 ar   
    49   46   47 1    
    50   46   48 ar   
    51   48   49 1    
    52   49   50 2    
    53   49   51 1    
    54   51   53 1    
    55   51   52 1    
    56   51   54 1    
    57   54   55 1    
    58   54   56 am   BACKBONE|DICT|INTERRES
    59   56   57 2    
    60   56   58 1    
    61   58   59 1    
    62   58   60 1    
    63   60   62 1    
    64   60   61 1    
    65   60   63 1    
    66   63   65 1    
    67   63   64 1    
    68   63   66 1    
    69   66   71 1    
    70   66   67 1    
    71   66   72 1    
    72   67   70 1    
    73   67   68 1    
    74   67   69 1    
    75   72   73 1    
    76   72   74 1    
    77   72   75 1    
    78   76   80 1    
    79   76   78 1    
    80   76   79 1    
    81   76   77 1    
    82   80   81 1    
    83   80   85 2    
    84   81   83 1    
    85   81   84 1    
    86   81   82 1    
    87   86   89 1    
    88   86   90 1    
    89   86   87 1    
    90   86   88 1    
    91   90   95 2    
    92   90   91 1    
    93   91   94 1    
    94   91   93 1    
    95   91   92 1    
@<TRIPOS>SUBSTRUCTURE
     1 UNK         1 GROUP             0       ****    0 ROOT    
@<TRIPOS>MOLECULE
Cpd1-5000
95   95    1
SMALL
USER_CHARGES


@<TRIPOS>ATOM
      1 C1         32.1220   24.4910   24.6540 C.3       1 UNK         0.0000 
      2 H2         32.7560   23.8990   23.9830 H         1 UNK         0.0000 
      3 H3         32.2610   24.1270   25.6800 H         1 UNK         0.0000 
      4 H4         31.0660   24.3300   24.4070 H         1 UNK         0.0000 
      5 C5         32.5120   25.9920   24.5160 C.3       1 UNK         0.0000 
      6 C6         32.3530   26.3870   23.1000 C.3       1 UNK         0.0000 
      7 H7         32.9680   25.7380   22.4650 H         1 UNK         0.0000 
      8 H8         31.3010   26.4580   22.7990 H         1 UNK         0.0000 
      9 H9         32.6280   27.4390   22.9490 H         1 UNK         0.0000 
     10 C10        33.9150   26.3520   25.0150 C.3       1 UNK         0.0000 
     11 H11        34.2340   27.3980   24.9230 H         1 UNK         0.0000 
     12 H12        34.1210   26.0510   26.0490 H         1 UNK         0.0000 
     13 H13        34.5910   25.6540   24.5050 H         1 UNK         0.0000 
     14 O14        31.5490   26.8250   25.1630 O.3       1 UNK         0.0000 
     15 C15        31.4330   26.9750   26.4610 C.2       1 UNK         0.0000 
     16 O16        31.9420   26.2730   27.3620 O.2       1 UNK         0.0000 
     17 N17        30.7240   28.0630   26.8290 N.am      1 UNK         0.0000 
     18 H18        30.3750   28.6410   26.0730 H         1 UNK         0.0000 
     19 C19        30.6380   28.6060   28.1760 C.3       1 UNK         0.0000 
     20 C20        30.3430   27.6500   29.2880 C.2       1 UNK         0.0000 
     21 N21        31.3710   27.5820   30.1950 N.am      1 UNK         0.0000 
     22 H22        32.1790   28.1470   29.9660 H         1 UNK         0.0000 
     23 O23        29.3510   26.9130   29.4610 O.2       1 UNK         0.0000 
     24 H24        31.6490   28.9980   28.3410 H         1 UNK         0.0000 
     25 C25        29.5480   29.7460   28.1390 C.3       1 UNK         0.0000 
     26 H26        28.5470   29.3680   27.8960 H         1 UNK         0.0000 
     27 H27        29.6550   30.4450   27.3000 H         1 UNK         0.0000 
     28 C28        29.5500   30.5660   29.3170 C.ar      1 UNK         0.0000 
     29 C29        28.7840   30.2560   30.4290 C.ar      1 UNK         0.0000 
     30 C30        28.9390   30.9970   31.6440 C.ar      1 UNK         0.0000 
     31 H31        28.4100   30.7660   32.5640 H         1 UNK         0.0000 
     32 H32        28.0600   29.4580   30.2960 H         1 UNK         0.0000 
     33 C33        30.4790   31.6360   29.4020 C.ar      1 UNK         0.0000 
     34 H34        31.1750   31.8330   28.5920 H         1 UNK         0.0000 
     35 C35        30.7080   32.3120   30.6040 C.ar      1 UNK         0.0000 
     36 H36        31.5050   33.0350   30.7540 H         1 UNK         0.0000 
     37 C37        29.9900   31.9880   31.7330 C.ar      1 UNK         0.0000 
     38 O38        30.2970   32.5540   32.9450 O.3       1 UNK         0.0000 
     39 C39        30.8200   31.6860   33.8460 C.ar      1 UNK         0.0000 
     40 C40        32.0370   31.1250   33.4580 C.ar      1 UNK         0.0000 
     41 C41        32.5400   30.0520   34.1850 C.ar      1 UNK         0.0000 
     42 H42        33.4050   29.4720   33.8780 H         1 UNK         0.0000 
     43 H43        32.5240   31.7230   32.6930 H         1 UNK         0.0000 
     44 C44        29.9870   31.1000   34.8490 C.ar      1 UNK         0.0000 
     45 H45        28.9670   31.4340   35.0160 H         1 UNK         0.0000 
     46 C46        30.4570   29.9900   35.5070 C.ar      1 UNK         0.0000 
     47 H47        29.8360   29.4700   36.2300 H         1 UNK         0.0000 
     48 C48        31.7660   29.4470   35.1610 C.ar      1 UNK         0.0000 
     49 C49        32.1130   28.1310   35.7110 C.2       1 UNK         0.0000 
     50 O50        31.5790   27.8640   36.6760 O.2       1 UNK         0.0000 
     51 C51        32.9110   27.0650   34.9330 C.3       1 UNK         0.0000 
     52 H52        33.9590   27.3820   34.8630 H         1 UNK         0.0000 
     53 H53        32.9880   26.1030   35.4550 H         1 UNK         0.0000 
     54 N54        32.2560   26.6700   33.6750 N.am      1 UNK         0.0000 
     55 H55        31.3850   26.1730   33.8130 H         1 UNK         0.0000 
     56 C56        32.4480   27.2160   32.4580 C.2       1 UNK         0.0000 
     57 O57        33.4290   27.9050   32.1740 O.2       1 UNK         0.0000 
     58 C58        31.4510   26.7560   31.4080 C.3       1 UNK         0.0000 
     59 H59        30.4150   26.7220   31.7690 H         1 UNK         0.0000 
     60 C60        31.8840   25.2960   31.0710 C.3       1 UNK         0.0000 
     61 H61        31.0730   24.8470   30.4850 H         1 UNK         0.0000 
     62 H62        32.0120   24.7630   32.0200 H         1 UNK         0.0000 
     63 C63        33.1520   25.0980   30.3080 C.3       1 UNK         0.0000 
     64 H64        33.0360   25.7560   29.4380 H         1 UNK         0.0000 
     65 H65        34.0510   25.5590   30.7360 H         1 UNK         0.0000 
     66 C66        33.4840   23.6860   29.8740 C.3       1 UNK         0.0000 
     67 C67        34.7030   23.6180   28.8600 C.3       1 UNK         0.0000 
     68 H68        35.6410   23.8010   29.3980 H         1 UNK         0.0000 
     69 H69        34.9210   22.6760   28.3410 H         1 UNK         0.0000 
     70 H70        34.5570   24.2950   28.0090 H         1 UNK         0.0000 
     71 H71        32.5880   23.3310   29.3500 H         1 UNK         0.0000 
     72 C72        33.8270   22.8130   31.0910 C.3       1 UNK         0.0000 
     73 H73        32.9980   22.7140   31.8030 H         1 UNK         0.0000 
     74 H74        34.1880   21.8090   30.8340 H         1 UNK         0.0000 
     75 H75        34.6210   23.2690   31.6940 H         1 UNK         0.0000 
     76 C76        27.1700   25.1000   34.5240 C.3       1 UNK         0.0000 
     77 H77        27.6610   25.1830   35.5010 H         1 UNK         0.0000 
     78 H78        27.1460   24.0540   34.1940 H         1 UNK         0.0000 
     79 H79        26.1710   25.5530   34.5130 H         1 UNK         0.0000 
     80 S80        28.2520   26.0360   33.5300 S.3       1 UNK         0.0000 
     81 C81        27.7810   25.2990   31.9470 C.3       1 UNK         0.0000 
     82 H82        27.8990   24.2090   31.9730 H         1 UNK         0.0000 
     83 H83        28.4620   25.7260   31.2020 H         1 UNK         0.0000 
     84 H84        26.7400   25.6070   31.7850 H         1 UNK         0.0000 
     85 O85        29.5570   25.4820   33.9760 O.2       1 UNK         0.0000 
     86 C86        30.5600   30.7000   22.9410 C.3       1 UNK         0.0000 
     87 H87        30.3070   31.6950   23.3270 H         1 UNK         0.0000 
     88 H88        30.5160   30.6630   21.8450 H         1 UNK         0.0000 
     89 H89        31.5050   30.3460   23.3710 H         1 UNK         0.0000 
     90 S90        29.5300   29.2810   23.3670 S.3       1 UNK         0.0000 
     91 C91        27.9730   29.8900   22.7350 C.3       1 UNK         0.0000 
     92 H92        27.1510   29.1940   22.9460 H         1 UNK         0.0000 
     93 H93        27.9750   30.1270   21.6640 H         1 UNK         0.0000 
     94 H94        27.8820   30.8860   23.1840 H         1 UNK         0.0000 
     95 O95        29.1930   29.3110   24.7900 O.2       1 UNK         0.0000 
@<TRIPOS>BOND
     1    1    3 1    
     2    1    2 1    
     3    1    4 1    
     4    1    5 1    
     5    5   10 1    
     6    5   14 1    
     7    5    6 1    
     8    6    7 1    
     9    6    8 1    
    10    6    9 1    
    11   10   12 1    
    12   10   11 1    
    13   10   13 1    
    14   14   15 1    
    15   15   17 am   BACKBONE|DICT|INTERRES
    16   15   16 2    
    17   17   19 1    
    18   17   18 1    
    19   19   24 1    
    20   19   20 1    
    21   19   25 1    
    22   20   23 2    
    23   20   21 am   BACKBONE|DICT|INTERRES
    24   21   58 1    
    25   21   22 1    
    26   25   28 1    
    27   25   26 1    
    28   25   27 1    
    29   28   33 ar   
    30   28   29 ar   
    31   29   30 ar   
    32   29   32 1    
    33   30   37 ar   
    34   30   31 1    
    35   33   35 ar   
    36   33   34 1    
    37   35   36 1    
    38   35   37 ar   
    39   37   38 1    
    40   38   39 1    
    41   39   44 ar   
    42   39   40 ar   
    43   40   41 ar   
    44   40   43 1    
    45   41   48 ar   
    46   41   42 1    
    47   44   45 1    
    48   44   46 ar   
    49   46   47 1    
    50   46   48 ar   
    51   48   49 1    
    52   49   50 2    
    53   49   51 1    
    54   51   53 1    
    55   51   52 1    
    56   51   54 1    
    57   54   55 1    
    58   54   56 am   BACKBONE|DICT|INTERRES
    59   56   57 2    
    60   56   58 1    
    61   58   59 1    
    62   58   60 1    
    63   60   62 1    
    64   60   61 1    
    65   60   63 1    
    66   63   65 1    
    67   63   64 1    
    68   63   66 1    
    69   66   72 1    
    70   66   67 1    
    71   66   71 1    
    72   67   68 1    
    73   67   69 1    
    74   67   70 1    
    75   72   75 1    
    76   72   73 1    
    77   72   74 1    
    78   76   77 1    
    79   76   78 1    
    80   76   79 1    
    81   76   80 1    
    82   80   85 2    
    83   80   81 1    
    84   81   82 1    
    85   81   83 1    
    86   81   84 1    
    87   86   87 1    
    88   86   90 1    
    89   86   89 1    
    90   86   88 1    
    91   90   95 2    
    92   90   91 1    
    93   91   92 1    
    94   91   94 1    
    95   91   93 1    
@<TRIPOS>SUBSTRUCTURE
     1 UNK         1 GROUP             0       ****    0 ROOT    
