@<TRIPOS>MOLECULE
Cpd2-500
90   91    1
SMALL
USER_CHARGES


@<TRIPOS>ATOM
      1 C1         33.6662   32.4601   30.9947 C.3       1 UNK         0.0000 
      2 H2         32.7225   32.2676   30.4692 H         1 UNK         0.0000 
      3 H3         34.1443   33.3733   30.6199 H         1 UNK         0.0000 
      4 H4         34.3690   31.6380   30.8117 H         1 UNK         0.0000 
      5 C5         33.2715   32.5834   32.4444 C.3       1 UNK         0.0000 
      6 C6         34.3940   32.3133   33.4769 C.3       1 UNK         0.0000 
      7 H7         33.9540   32.3840   34.4789 H         1 UNK         0.0000 
      8 H8         34.8347   31.3189   33.3289 H         1 UNK         0.0000 
      9 H9         35.2081   33.0382   33.3597 H         1 UNK         0.0000 
     10 C10        32.6041   33.9050   32.7200 C.3       1 UNK         0.0000 
     11 H11        31.7695   34.1163   32.0403 H         1 UNK         0.0000 
     12 H12        32.1474   33.9156   33.7171 H         1 UNK         0.0000 
     13 H13        33.2753   34.7355   32.4712 H         1 UNK         0.0000 
     14 O14        32.2711   31.6032   32.7076 O.3       1 UNK         0.0000 
     15 C15        32.4797   30.2339   32.7180 C.2       1 UNK         0.0000 
     16 O16        33.4859   29.6713   32.4378 O.2       1 UNK         0.0000 
     17 N17        31.4821   29.6824   33.4736 N.am      1 UNK         0.0000 
     18 H18        30.8032   30.3310   33.8538 H         1 UNK         0.0000 
     19 C19        31.2841   28.2917   33.6927 C.3       1 UNK         0.0000 
     20 C20        30.8349   27.5446   32.3951 C.2       1 UNK         0.0000 
     21 N21        31.8460   26.8664   31.7311 N.am      1 UNK         0.0000 
     22 H22        32.7565   26.8788   32.1757 H         1 UNK         0.0000 
     23 O23        29.6659   27.6081   31.9803 O.2       1 UNK         0.0000 
     24 H24        32.2047   27.7755   33.9906 H         1 UNK         0.0000 
     25 C25        30.2675   28.0739   34.8136 C.3       1 UNK         0.0000 
     26 H26        29.2524   28.3620   34.5123 H         1 UNK         0.0000 
     27 H27        30.4616   28.6585   35.7203 H         1 UNK         0.0000 
     28 C28        30.3650   26.6039   35.1503 C.ar      1 UNK         0.0000 
     29 C29        29.5935   25.6478   34.5372 C.ar      1 UNK         0.0000 
     30 C30        29.8538   24.2770   34.7193 C.ar      1 UNK         0.0000 
     31 H31        29.2643   23.6188   34.0869 H         1 UNK         0.0000 
     32 H32        28.8356   25.9057   33.8046 H         1 UNK         0.0000 
     33 C33        31.3033   26.2229   36.1153 C.ar      1 UNK         0.0000 
     34 H34        31.9518   26.9879   36.5317 H         1 UNK         0.0000 
     35 C35        31.6195   24.8728   36.2593 C.ar      1 UNK         0.0000 
     36 H36        32.3383   24.5444   37.0039 H         1 UNK         0.0000 
     37 C37        30.9332   23.8872   35.5400 C.ar      1 UNK         0.0000 
     38 O38        31.3963   22.6104   35.5411 O.3       1 UNK         0.0000 
     39 C39        32.4157   22.4078   34.6224 C.ar      1 UNK         0.0000 
     40 C40        31.9517   22.2205   33.3444 C.ar      1 UNK         0.0000 
     41 C41        32.7639   22.3029   32.2618 C.ar      1 UNK         0.0000 
     42 H42        32.3203   22.1826   31.2781 H         1 UNK         0.0000 
     43 H43        30.9073   22.0132   33.1296 H         1 UNK         0.0000 
     44 C44        33.7481   22.6331   34.8244 C.ar      1 UNK         0.0000 
     45 H45        34.0923   22.9343   35.8098 H         1 UNK         0.0000 
     46 C46        34.6095   22.6251   33.7183 C.ar      1 UNK         0.0000 
     47 H47        35.5577   23.1403   33.8377 H         1 UNK         0.0000 
     48 C48        34.1050   22.4991   32.4482 C.ar      1 UNK         0.0000 
     49 C49        35.0262   22.8189   31.2250 C.2       1 UNK         0.0000 
     50 O50        36.2150   22.5257   31.2888 O.2       1 UNK         0.0000 
     51 C51        34.4014   23.5853   30.0424 C.3       1 UNK         0.0000 
     52 H52        35.2965   23.9910   29.5560 H         1 UNK         0.0000 
     53 H53        34.0582   22.9290   29.2332 H         1 UNK         0.0000 
     54 N54        33.5426   24.7261   30.4483 N.am      1 UNK         0.0000 
     55 H55        33.3871   24.9280   31.4280 H         1 UNK         0.0000 
     56 C56        32.7937   25.4656   29.6403 C.2       1 UNK         0.0000 
     57 O57        32.8707   25.3599   28.4094 O.2       1 UNK         0.0000 
     58 C58        31.8663   26.5522   30.2441 C.3       1 UNK         0.0000 
     59 H59        30.8897   26.1085   30.0157 H         1 UNK         0.0000 
     60 C60        31.9926   27.7544   29.3432 C.ar      1 UNK         0.0000 
     61 C61        30.9246   28.0782   28.4617 C.ar      1 UNK         0.0000 
     62 H62        29.9918   27.5233   28.4116 H         1 UNK         0.0000 
     63 C63        31.0785   29.1897   27.5981 C.ar      1 UNK         0.0000 
     64 H64        30.2150   29.4737   27.0034 H         1 UNK         0.0000 
     65 C65        32.2255   29.9801   27.6651 C.ar      1 UNK         0.0000 
     66 H66        32.1579   30.9059   27.1015 H         1 UNK         0.0000 
     67 C67        33.2330   29.7834   28.6508 C.ar      1 UNK         0.0000 
     68 H68        34.0963   30.4411   28.6321 H         1 UNK         0.0000 
     69 C69        33.1821   28.5687   29.3553 C.ar      1 UNK         0.0000 
     70 H70        34.0146   28.3801   30.0272 H         1 UNK         0.0000 
     71 C71        34.5767   26.7720   35.3130 C.3       1 UNK         0.0000 
     72 H72        35.2764   27.0376   36.1149 H         1 UNK         0.0000 
     73 H73        33.9473   25.9494   35.6717 H         1 UNK         0.0000 
     74 H74        33.8990   27.5965   35.0585 H         1 UNK         0.0000 
     75 S75        35.4851   26.1299   33.9056 S.3       1 UNK         0.0000 
     76 C76        36.1604   27.7495   33.3543 C.3       1 UNK         0.0000 
     77 H77        36.4568   27.5767   32.3122 H         1 UNK         0.0000 
     78 H78        37.0569   27.9055   33.9666 H         1 UNK         0.0000 
     79 H79        35.4263   28.5595   33.4525 H         1 UNK         0.0000 
     80 O80        34.3176   25.9589   32.9603 O.2       1 UNK         0.0000 
     81 C81        29.6074   33.4470   36.7910 C.3       1 UNK         0.0000 
     82 H82        30.0825   32.8972   37.6124 H         1 UNK         0.0000 
     83 H83        28.5625   33.2669   37.0735 H         1 UNK         0.0000 
     84 H84        29.7443   34.5142   37.0009 H         1 UNK         0.0000 
     85 S85        30.0010   33.0881   35.0884 S.3       1 UNK         0.0000 
     86 C86        28.5915   34.0320   34.4074 C.3       1 UNK         0.0000 
     87 H87        27.7309   33.4126   34.6885 H         1 UNK         0.0000 
     88 H88        28.7731   34.2869   33.3557 H         1 UNK         0.0000 
     89 H89        28.4389   34.9427   35.0011 H         1 UNK         0.0000 
     90 O90        29.5611   31.7130   35.0056 O.2       1 UNK         0.0000 
@<TRIPOS>BOND
     1    1    4 1    
     2    1    3 1    
     3    1    2 1    
     4    1    5 1    
     5    5    6 1    
     6    5   10 1    
     7    5   14 1    
     8    6    9 1    
     9    6    7 1    
    10    6    8 1    
    11   10   11 1    
    12   10   13 1    
    13   10   12 1    
    14   14   15 1    
    15   15   16 2    
    16   15   17 am   BACKBONE|DICT|INTERRES
    17   17   18 1    
    18   17   19 1    
    19   19   24 1    
    20   19   20 1    
    21   19   25 1    
    22   20   21 am   BACKBONE|DICT|INTERRES
    23   20   23 2    
    24   21   22 1    
    25   21   58 1    
    26   25   26 1    
    27   25   27 1    
    28   25   28 1    
    29   28   29 ar   
    30   28   33 ar   
    31   29   32 1    
    32   29   30 ar   
    33   30   31 1    
    34   30   37 ar   
    35   33   34 1    
    36   33   35 ar   
    37   35   36 1    
    38   35   37 ar   
    39   37   38 1    
    40   38   39 1    
    41   39   44 ar   
    42   39   40 ar   
    43   40   41 ar   
    44   40   43 1    
    45   41   42 1    
    46   41   48 ar   
    47   44   46 ar   
    48   44   45 1    
    49   46   47 1    
    50   46   48 ar   
    51   48   49 1    
    52   49   50 2    
    53   49   51 1    
    54   51   53 1    
    55   51   52 1    
    56   51   54 1    
    57   54   56 am   BACKBONE|DICT|INTERRES
    58   54   55 1    
    59   56   57 2    
    60   56   58 1    
    61   58   59 1    
    62   58   60 1    
    63   60   61 ar   
    64   60   69 ar   
    65   61   63 ar   
    66   61   62 1    
    67   63   64 1    
    68   63   65 ar   
    69   65   66 1    
    70   65   67 ar   
    71   67   68 1    
    72   67   69 ar   
    73   69   70 1    
    74   71   74 1    
    75   71   75 1    
    76   71   72 1    
    77   71   73 1    
    78   75   80 2    
    79   75   76 1    
    80   76   78 1    
    81   76   77 1    
    82   76   79 1    
    83   81   84 1    
    84   81   85 1    
    85   81   82 1    
    86   81   83 1    
    87   85   86 1    
    88   85   90 2    
    89   86   88 1    
    90   86   87 1    
    91   86   89 1    
@<TRIPOS>SUBSTRUCTURE
     1 UNK         1 GROUP             0       ****    0 ROOT    
@<TRIPOS>MOLECULE
Cpd2-1000
90   91    1
SMALL
USER_CHARGES


@<TRIPOS>ATOM
      1 C1         32.1808   32.0235   30.2029 C.3       1 UNK         0.0000 
      2 H2         31.2254   31.7047   29.7669 H         1 UNK         0.0000 
      3 H3         32.6976   32.7544   29.5695 H         1 UNK         0.0000 
      4 H4         32.8128   31.1271   30.2260 H         1 UNK         0.0000 
      5 C5         31.7857   32.6534   31.5726 C.3       1 UNK         0.0000 
      6 C6         33.0616   33.1441   32.2494 C.3       1 UNK         0.0000 
      7 H7         33.8661   32.3986   32.2968 H         1 UNK         0.0000 
      8 H8         33.5112   34.0023   31.7345 H         1 UNK         0.0000 
      9 H9         32.8505   33.4841   33.2707 H         1 UNK         0.0000 
     10 C10        30.9059   33.7639   31.4033 C.3       1 UNK         0.0000 
     11 H11        30.5292   34.0981   32.3775 H         1 UNK         0.0000 
     12 H12        31.4202   34.6151   30.9396 H         1 UNK         0.0000 
     13 H13        30.0346   33.4578   30.8114 H         1 UNK         0.0000 
     14 O14        31.1168   31.7912   32.3575 O.3       1 UNK         0.0000 
     15 C15        31.6362   30.6356   32.7371 C.2       1 UNK         0.0000 
     16 O16        32.6665   30.0342   32.3992 O.2       1 UNK         0.0000 
     17 N17        30.6097   29.8733   33.0966 N.am      1 UNK         0.0000 
     18 H18        29.8993   30.4790   33.4886 H         1 UNK         0.0000 
     19 C19        30.6591   28.4117   33.5014 C.3       1 UNK         0.0000 
     20 C20        30.5919   27.6049   32.2132 C.2       1 UNK         0.0000 
     21 N21        31.8172   27.2015   31.7665 N.am      1 UNK         0.0000 
     22 H22        32.5782   27.5364   32.3445 H         1 UNK         0.0000 
     23 O23        29.5120   27.2486   31.7272 O.2       1 UNK         0.0000 
     24 H24        31.6688   28.2623   33.9029 H         1 UNK         0.0000 
     25 C25        29.7059   28.0757   34.6190 C.3       1 UNK         0.0000 
     26 H26        28.6772   28.0001   34.2473 H         1 UNK         0.0000 
     27 H27        29.7941   28.9213   35.3131 H         1 UNK         0.0000 
     28 C28        30.0026   26.6156   35.1672 C.ar      1 UNK         0.0000 
     29 C29        29.4395   25.4950   34.5628 C.ar      1 UNK         0.0000 
     30 C30        30.0321   24.2217   34.8653 C.ar      1 UNK         0.0000 
     31 H31        29.4138   23.4319   34.4490 H         1 UNK         0.0000 
     32 H32        28.5857   25.5060   33.8926 H         1 UNK         0.0000 
     33 C33        31.0700   26.5064   36.0551 C.ar      1 UNK         0.0000 
     34 H34        31.4802   27.4360   36.4368 H         1 UNK         0.0000 
     35 C35        31.8071   25.2571   36.2369 C.ar      1 UNK         0.0000 
     36 H36        32.7840   25.2614   36.7094 H         1 UNK         0.0000 
     37 C37        31.1818   24.1309   35.6115 C.ar      1 UNK         0.0000 
     38 O38        31.9046   22.9566   35.6749 O.3       1 UNK         0.0000 
     39 C39        32.6702   22.5825   34.6481 C.ar      1 UNK         0.0000 
     40 C40        32.3150   21.5720   33.6962 C.ar      1 UNK         0.0000 
     41 C41        33.0591   21.3302   32.5080 C.ar      1 UNK         0.0000 
     42 H42        32.7640   20.5260   31.8412 H         1 UNK         0.0000 
     43 H43        31.4285   20.9718   33.8747 H         1 UNK         0.0000 
     44 C44        33.7209   23.3995   34.2722 C.ar      1 UNK         0.0000 
     45 H45        33.9317   24.2391   34.9278 H         1 UNK         0.0000 
     46 C46        34.3901   23.3214   33.0133 C.ar      1 UNK         0.0000 
     47 H47        35.1199   24.0933   32.7850 H         1 UNK         0.0000 
     48 C48        33.9742   22.3622   32.0581 C.ar      1 UNK         0.0000 
     49 C49        34.5124   22.2934   30.6608 C.2       1 UNK         0.0000 
     50 O50        34.5662   21.2271   30.0540 O.2       1 UNK         0.0000 
     51 C51        34.7697   23.6369   29.8977 C.3       1 UNK         0.0000 
     52 H52        35.6373   24.1619   30.3168 H         1 UNK         0.0000 
     53 H53        35.1977   23.5284   28.8934 H         1 UNK         0.0000 
     54 N54        33.5165   24.4944   29.8988 N.am      1 UNK         0.0000 
     55 H55        32.6436   24.1052   29.5641 H         1 UNK         0.0000 
     56 C56        33.4954   25.7075   30.5837 C.2       1 UNK         0.0000 
     57 O57        34.4792   26.2477   31.1590 O.2       1 UNK         0.0000 
     58 C58        32.0804   26.3286   30.5419 C.3       1 UNK         0.0000 
     59 H59        31.3517   25.5128   30.4632 H         1 UNK         0.0000 
     60 C60        32.1179   27.0867   29.2268 C.ar      1 UNK         0.0000 
     61 C61        31.3824   26.6341   28.1443 C.ar      1 UNK         0.0000 
     62 H62        30.9195   25.6512   28.1426 H         1 UNK         0.0000 
     63 C63        31.3454   27.2827   26.9244 C.ar      1 UNK         0.0000 
     64 H64        30.8270   26.8065   26.0971 H         1 UNK         0.0000 
     65 C65        32.0055   28.4642   26.7876 C.ar      1 UNK         0.0000 
     66 H66        31.8888   29.0356   25.8718 H         1 UNK         0.0000 
     67 C67        32.7197   28.9881   27.8933 C.ar      1 UNK         0.0000 
     68 H68        33.1142   29.9969   27.8103 H         1 UNK         0.0000 
     69 C69        32.8299   28.2588   29.0693 C.ar      1 UNK         0.0000 
     70 H70        33.5237   28.5854   29.8384 H         1 UNK         0.0000 
     71 C71        25.2261   31.5990   33.7089 C.3       1 UNK         0.0000 
     72 H72        24.3331   31.3371   34.2893 H         1 UNK         0.0000 
     73 H73        24.7807   31.4555   32.7165 H         1 UNK         0.0000 
     74 H74        25.4241   32.6704   33.8372 H         1 UNK         0.0000 
     75 S75        26.6687   30.5793   34.0644 S.3       1 UNK         0.0000 
     76 C76        26.8778   31.4610   35.7024 C.3       1 UNK         0.0000 
     77 H77        26.6142   32.5252   35.7307 H         1 UNK         0.0000 
     78 H78        27.9253   31.3206   35.9944 H         1 UNK         0.0000 
     79 H79        26.2388   30.9777   36.4523 H         1 UNK         0.0000 
     80 O80        27.6090   31.2686   33.1603 O.2       1 UNK         0.0000 
     81 C81        28.9182   21.7630   29.4771 C.3       1 UNK         0.0000 
     82 H82        28.7964   21.4786   28.4254 H         1 UNK         0.0000 
     83 H83        28.1998   22.5867   29.5687 H         1 UNK         0.0000 
     84 H84        28.6405   20.8966   30.0900 H         1 UNK         0.0000 
     85 S85        30.5276   22.2161   29.9123 S.3       1 UNK         0.0000 
     86 C86        30.0865   22.9732   31.4803 C.3       1 UNK         0.0000 
     87 H87        29.5380   23.9000   31.2720 H         1 UNK         0.0000 
     88 H88        31.0151   23.2701   31.9823 H         1 UNK         0.0000 
     89 H89        29.4588   22.2926   32.0688 H         1 UNK         0.0000 
     90 O90        30.9355   23.3741   29.0870 O.2       1 UNK         0.0000 
@<TRIPOS>BOND
     1    1    2 1    
     2    1    3 1    
     3    1    4 1    
     4    1    5 1    
     5    5    6 1    
     6    5   10 1    
     7    5   14 1    
     8    6    8 1    
     9    6    7 1    
    10    6    9 1    
    11   10   12 1    
    12   10   13 1    
    13   10   11 1    
    14   14   15 1    
    15   15   16 2    
    16   15   17 am   BACKBONE|DICT|INTERRES
    17   17   19 1    
    18   17   18 1    
    19   19   24 1    
    20   19   20 1    
    21   19   25 1    
    22   20   23 2    
    23   20   21 am   BACKBONE|DICT|INTERRES
    24   21   58 1    
    25   21   22 1    
    26   25   28 1    
    27   25   26 1    
    28   25   27 1    
    29   28   29 ar   
    30   28   33 ar   
    31   29   32 1    
    32   29   30 ar   
    33   30   31 1    
    34   30   37 ar   
    35   33   35 ar   
    36   33   34 1    
    37   35   37 ar   
    38   35   36 1    
    39   37   38 1    
    40   38   39 1    
    41   39   44 ar   
    42   39   40 ar   
    43   40   41 ar   
    44   40   43 1    
    45   41   48 ar   
    46   41   42 1    
    47   44   46 ar   
    48   44   45 1    
    49   46   47 1    
    50   46   48 ar   
    51   48   49 1    
    52   49   51 1    
    53   49   50 2    
    54   51   53 1    
    55   51   52 1    
    56   51   54 1    
    57   54   55 1    
    58   54   56 am   BACKBONE|DICT|INTERRES
    59   56   57 2    
    60   56   58 1    
    61   58   59 1    
    62   58   60 1    
    63   60   61 ar   
    64   60   69 ar   
    65   61   62 1    
    66   61   63 ar   
    67   63   64 1    
    68   63   65 ar   
    69   65   66 1    
    70   65   67 ar   
    71   67   68 1    
    72   67   69 ar   
    73   69   70 1    
    74   71   75 1    
    75   71   73 1    
    76   71   72 1    
    77   71   74 1    
    78   75   80 2    
    79   75   76 1    
    80   76   78 1    
    81   76   77 1    
    82   76   79 1    
    83   81   82 1    
    84   81   83 1    
    85   81   84 1    
    86   81   85 1    
    87   85   90 2    
    88   85   86 1    
    89   86   87 1    
    90   86   88 1    
    91   86   89 1    
@<TRIPOS>SUBSTRUCTURE
     1 UNK         1 GROUP             0       ****    0 ROOT    
@<TRIPOS>MOLECULE
Cpd2-1500-MEC
90   91    1
SMALL
USER_CHARGES


@<TRIPOS>ATOM
      1 C1         31.7010   32.6980   30.4870 C.3       1 UNK         0.0000 
      2 H2         30.9960   32.4360   29.6880 H         1 UNK         0.0000 
      3 H3         32.1000   33.6750   30.1880 H         1 UNK         0.0000 
      4 H4         32.5140   31.9630   30.4380 H         1 UNK         0.0000 
      5 C5         30.9660   32.9430   31.7670 C.3       1 UNK         0.0000 
      6 C6         31.7830   33.4370   32.9250 C.3       1 UNK         0.0000 
      7 H7         32.0300   34.4990   32.8000 H         1 UNK         0.0000 
      8 H8         31.2890   33.1990   33.8750 H         1 UNK         0.0000 
      9 H9         32.7600   32.9430   32.8770 H         1 UNK         0.0000 
     10 C10        29.7540   33.9220   31.5240 C.3       1 UNK         0.0000 
     11 H11        30.1220   34.9290   31.2970 H         1 UNK         0.0000 
     12 H12        29.0860   33.6050   30.7130 H         1 UNK         0.0000 
     13 H13        29.2740   34.0250   32.5050 H         1 UNK         0.0000 
     14 O14        30.2720   31.7980   32.3020 O.3       1 UNK         0.0000 
     15 C15        30.9280   30.6430   32.4610 C.2       1 UNK         0.0000 
     16 O16        32.1390   30.4220   32.2490 O.2       1 UNK         0.0000 
     17 N17        30.0960   29.7280   33.1280 N.am      1 UNK         0.0000 
     18 H18        29.1250   29.9970   33.2270 H         1 UNK         0.0000 
     19 C19        30.5460   28.3950   33.5340 C.3       1 UNK         0.0000 
     20 C20        30.6250   27.4850   32.2670 C.2       1 UNK         0.0000 
     21 N21        31.9040   27.1760   31.8410 N.am      1 UNK         0.0000 
     22 H22        32.7240   27.5230   32.3250 H         1 UNK         0.0000 
     23 O23        29.6300   27.0010   31.7030 O.2       1 UNK         0.0000 
     24 H24        31.5200   28.4740   34.0310 H         1 UNK         0.0000 
     25 C25        29.5850   27.9240   34.6080 C.3       1 UNK         0.0000 
     26 H26        28.5620   27.9150   34.2120 H         1 UNK         0.0000 
     27 H27        29.6690   28.6360   35.4380 H         1 UNK         0.0000 
     28 C28        30.0420   26.5920   35.0330 C.ar      1 UNK         0.0000 
     29 C29        29.5410   25.3690   34.4900 C.ar      1 UNK         0.0000 
     30 C30        30.2020   24.2020   34.7530 C.ar      1 UNK         0.0000 
     31 H31        29.9140   23.2210   34.3870 H         1 UNK         0.0000 
     32 H32        28.8500   25.3260   33.6540 H         1 UNK         0.0000 
     33 C33        30.9850   26.5400   36.0970 C.ar      1 UNK         0.0000 
     34 H34        31.2770   27.4900   36.5340 H         1 UNK         0.0000 
     35 C35        31.6210   25.2920   36.3290 C.ar      1 UNK         0.0000 
     36 H36        32.4660   25.2350   37.0090 H         1 UNK         0.0000 
     37 C37        31.2830   24.1590   35.6180 C.ar      1 UNK         0.0000 
     38 O38        31.9970   23.0160   35.7630 O.3       1 UNK         0.0000 
     39 C39        32.7230   22.6620   34.6460 C.ar      1 UNK         0.0000 
     40 C40        32.2720   21.7170   33.7470 C.ar      1 UNK         0.0000 
     41 C41        32.8400   21.5790   32.4660 C.ar      1 UNK         0.0000 
     42 H42        32.3160   21.0310   31.6890 H         1 UNK         0.0000 
     43 H43        31.3900   21.1290   33.9810 H         1 UNK         0.0000 
     44 C44        33.8580   23.4020   34.3120 C.ar      1 UNK         0.0000 
     45 H45        34.2070   24.1610   35.0060 H         1 UNK         0.0000 
     46 C46        34.4470   23.2850   33.0130 C.ar      1 UNK         0.0000 
     47 H47        35.3220   23.8470   32.6990 H         1 UNK         0.0000 
     48 C48        33.9510   22.3450   32.0850 C.ar      1 UNK         0.0000 
     49 C49        34.3690   22.3140   30.6730 C.2       1 UNK         0.0000 
     50 O50        34.2900   21.2650   30.0820 O.2       1 UNK         0.0000 
     51 C51        34.7190   23.5730   29.8600 C.3       1 UNK         0.0000 
     52 H52        35.5720   24.0450   30.3640 H         1 UNK         0.0000 
     53 H53        35.0920   23.3430   28.8550 H         1 UNK         0.0000 
     54 N54        33.6420   24.6450   29.7830 N.am      1 UNK         0.0000 
     55 H55        32.8550   24.4810   29.1670 H         1 UNK         0.0000 
     56 C56        33.5410   25.7240   30.5490 C.2       1 UNK         0.0000 
     57 O57        34.4800   26.0450   31.2320 O.2       1 UNK         0.0000 
     58 C58        32.1800   26.5220   30.5090 C.3       1 UNK         0.0000 
     59 H59        31.4020   25.8410   30.1410 H         1 UNK         0.0000 
     60 C60        32.2400   27.6150   29.4390 C.ar      1 UNK         0.0000 
     61 C61        32.9190   28.7550   29.6230 C.ar      1 UNK         0.0000 
     62 H62        33.2860   28.9950   30.6160 H         1 UNK         0.0000 
     63 C63        32.9410   29.7500   28.6180 C.ar      1 UNK         0.0000 
     64 H64        33.4180   30.7140   28.7670 H         1 UNK         0.0000 
     65 C65        32.4430   29.4390   27.3910 C.ar      1 UNK         0.0000 
     66 H66        32.5280   30.1080   26.5400 H         1 UNK         0.0000 
     67 C67        31.6260   28.2970   27.2480 C.ar      1 UNK         0.0000 
     68 H68        31.2080   28.0590   26.2740 H         1 UNK         0.0000 
     69 C69        31.5540   27.3780   28.2480 C.ar      1 UNK         0.0000 
     70 H70        30.9360   26.4920   28.1420 H         1 UNK         0.0000 
     71 C71        31.9790   21.2720   27.0120 C.3       1 UNK         0.0000 
     72 H72        32.4390   21.1590   28.0010 H         1 UNK         0.0000 
     73 H73        32.6450   21.4340   26.1550 H         1 UNK         0.0000 
     74 H74        31.3210   20.4350   26.7500 H         1 UNK         0.0000 
     75 S75        30.9090   22.6850   27.2670 S.3       1 UNK         0.0000 
     76 C76        30.3810   22.8030   25.5380 C.3       1 UNK         0.0000 
     77 H77        29.8020   21.9230   25.2300 H         1 UNK         0.0000 
     78 H78        31.3080   22.9210   24.9630 H         1 UNK         0.0000 
     79 H79        29.7650   23.6960   25.3810 H         1 UNK         0.0000 
     80 O80        31.9280   23.8080   27.4550 O.2       1 UNK         0.0000 
     81 C81        28.0110   32.8420   34.9130 C.3       1 UNK         0.0000 
     82 H82        28.9890   32.4600   34.5970 H         1 UNK         0.0000 
     83 H83        28.0150   33.5530   35.7490 H         1 UNK         0.0000 
     84 H84        27.5330   33.2730   34.0250 H         1 UNK         0.0000 
     85 S85        26.9860   31.3500   35.2600 S.3       1 UNK         0.0000 
     86 C86        28.1320   30.8150   36.4660 C.3       1 UNK         0.0000 
     87 H87        29.1610   30.8020   36.0840 H         1 UNK         0.0000 
     88 H88        27.8030   29.8000   36.7190 H         1 UNK         0.0000 
     89 H89        27.8970   31.5270   37.2670 H         1 UNK         0.0000 
     90 O90        27.5170   30.5950   34.0220 O.2       1 UNK         0.0000 
@<TRIPOS>BOND
     1    1    5 1    
     2    1    2 1    
     3    1    3 1    
     4    1    4 1    
     5    5   14 1    
     6    5    6 1    
     7    5   10 1    
     8    6    8 1    
     9    6    7 1    
    10    6    9 1    
    11   10   13 1    
    12   10   11 1    
    13   10   12 1    
    14   14   15 1    
    15   15   17 am   BACKBONE|DICT|INTERRES
    16   15   16 2    
    17   17   18 1    
    18   17   19 1    
    19   19   24 1    
    20   19   25 1    
    21   19   20 1    
    22   20   21 am   BACKBONE|DICT|INTERRES
    23   20   23 2    
    24   21   22 1    
    25   21   58 1    
    26   25   28 1    
    27   25   27 1    
    28   25   26 1    
    29   28   33 ar   
    30   28   29 ar   
    31   29   30 ar   
    32   29   32 1    
    33   30   37 ar   
    34   30   31 1    
    35   33   35 ar   
    36   33   34 1    
    37   35   36 1    
    38   35   37 ar   
    39   37   38 1    
    40   38   39 1    
    41   39   40 ar   
    42   39   44 ar   
    43   40   43 1    
    44   40   41 ar   
    45   41   42 1    
    46   41   48 ar   
    47   44   45 1    
    48   44   46 ar   
    49   46   47 1    
    50   46   48 ar   
    51   48   49 1    
    52   49   50 2    
    53   49   51 1    
    54   51   52 1    
    55   51   53 1    
    56   51   54 1    
    57   54   56 am   BACKBONE|DICT|INTERRES
    58   54   55 1    
    59   56   57 2    
    60   56   58 1    
    61   58   59 1    
    62   58   60 1    
    63   60   61 ar   
    64   60   69 ar   
    65   61   62 1    
    66   61   63 ar   
    67   63   64 1    
    68   63   65 ar   
    69   65   66 1    
    70   65   67 ar   
    71   67   69 ar   
    72   67   68 1    
    73   69   70 1    
    74   71   75 1    
    75   71   72 1    
    76   71   73 1    
    77   71   74 1    
    78   75   80 2    
    79   75   76 1    
    80   76   77 1    
    81   76   78 1    
    82   76   79 1    
    83   81   85 1    
    84   81   83 1    
    85   81   82 1    
    86   81   84 1    
    87   85   86 1    
    88   85   90 2    
    89   86   88 1    
    90   86   89 1    
    91   86   87 1    
@<TRIPOS>SUBSTRUCTURE
     1 UNK         1 GROUP             0       ****    0 ROOT    
@<TRIPOS>MOLECULE
Cpd2-2000
90   91    1
SMALL
USER_CHARGES


@<TRIPOS>ATOM
      1 C1         32.3957   32.7360   30.8908 C.3       1 UNK         0.0000 
      2 H2         33.0585   31.9395   30.5302 H         1 UNK         0.0000 
      3 H3         31.3623   32.5771   30.5604 H         1 UNK         0.0000 
      4 H4         32.7878   33.5805   30.3106 H         1 UNK         0.0000 
      5 C5         32.3994   32.9141   32.4502 C.3       1 UNK         0.0000 
      6 C6         33.7457   32.9506   33.0460 C.3       1 UNK         0.0000 
      7 H7         34.3997   33.6490   32.5096 H         1 UNK         0.0000 
      8 H8         33.5344   33.1509   34.1036 H         1 UNK         0.0000 
      9 H9         34.2408   31.9725   33.0841 H         1 UNK         0.0000 
     10 C10        31.7912   34.2998   32.6769 C.3       1 UNK         0.0000 
     11 H11        30.8529   34.4071   32.1178 H         1 UNK         0.0000 
     12 H12        31.5157   34.4884   33.7217 H         1 UNK         0.0000 
     13 H13        32.4985   35.0982   32.4199 H         1 UNK         0.0000 
     14 O14        31.4856   31.9386   32.9661 O.3       1 UNK         0.0000 
     15 C15        31.7585   30.6053   32.8718 C.2       1 UNK         0.0000 
     16 O16        32.7642   30.1115   32.3645 O.2       1 UNK         0.0000 
     17 N17        30.7111   29.8541   33.3661 N.am      1 UNK         0.0000 
     18 H18        29.9921   30.4408   33.7715 H         1 UNK         0.0000 
     19 C19        30.7869   28.4012   33.5251 C.3       1 UNK         0.0000 
     20 C20        30.7284   27.5071   32.2462 C.2       1 UNK         0.0000 
     21 N21        31.8676   26.9629   31.7825 N.am      1 UNK         0.0000 
     22 H22        32.6285   27.3706   32.3134 H         1 UNK         0.0000 
     23 O23        29.6103   27.3960   31.7259 O.2       1 UNK         0.0000 
     24 H24        31.7244   28.0807   33.9946 H         1 UNK         0.0000 
     25 C25        29.7624   27.9641   34.5926 C.3       1 UNK         0.0000 
     26 H26        28.7964   28.0308   34.0778 H         1 UNK         0.0000 
     27 H27        29.5286   28.6266   35.4342 H         1 UNK         0.0000 
     28 C28        30.1150   26.5807   35.1072 C.ar      1 UNK         0.0000 
     29 C29        29.6862   25.4208   34.4113 C.ar      1 UNK         0.0000 
     30 C30        30.1704   24.1651   34.6692 C.ar      1 UNK         0.0000 
     31 H31        29.8229   23.2521   34.1946 H         1 UNK         0.0000 
     32 H32        29.0201   25.5795   33.5677 H         1 UNK         0.0000 
     33 C33        31.1295   26.4372   36.1208 C.ar      1 UNK         0.0000 
     34 H34        31.5728   27.2881   36.6282 H         1 UNK         0.0000 
     35 C35        31.6438   25.1648   36.3743 C.ar      1 UNK         0.0000 
     36 H36        32.3744   25.0138   37.1632 H         1 UNK         0.0000 
     37 C37        31.1226   24.0469   35.6723 C.ar      1 UNK         0.0000 
     38 O38        31.8630   22.8564   35.7352 O.3       1 UNK         0.0000 
     39 C39        32.6596   22.6594   34.6237 C.ar      1 UNK         0.0000 
     40 C40        32.3729   21.6326   33.7573 C.ar      1 UNK         0.0000 
     41 C41        32.9886   21.4706   32.4985 C.ar      1 UNK         0.0000 
     42 H42        32.6183   20.6746   31.8592 H         1 UNK         0.0000 
     43 H43        31.5095   20.9986   33.9380 H         1 UNK         0.0000 
     44 C44        33.6893   23.6152   34.3030 C.ar      1 UNK         0.0000 
     45 H45        33.9660   24.3857   35.0165 H         1 UNK         0.0000 
     46 C46        34.1845   23.5809   32.9727 C.ar      1 UNK         0.0000 
     47 H47        34.8725   24.3529   32.6402 H         1 UNK         0.0000 
     48 C48        33.8676   22.4371   32.1135 C.ar      1 UNK         0.0000 
     49 C49        34.4247   22.3939   30.7209 C.2       1 UNK         0.0000 
     50 O50        34.5222   21.3214   30.2104 O.2       1 UNK         0.0000 
     51 C51        34.8007   23.6632   29.9422 C.3       1 UNK         0.0000 
     52 H52        35.5257   24.2781   30.4898 H         1 UNK         0.0000 
     53 H53        35.1645   23.3152   28.9672 H         1 UNK         0.0000 
     54 N54        33.6204   24.4861   29.7690 N.am      1 UNK         0.0000 
     55 H55        32.8541   24.1408   29.2037 H         1 UNK         0.0000 
     56 C56        33.3856   25.6411   30.4845 C.2       1 UNK         0.0000 
     57 O57        34.2729   26.1937   31.1473 O.2       1 UNK         0.0000 
     58 C58        31.9981   26.2306   30.4874 C.3       1 UNK         0.0000 
     59 H59        31.2865   25.3987   30.4080 H         1 UNK         0.0000 
     60 C60        31.7722   27.1676   29.2480 C.ar      1 UNK         0.0000 
     61 C61        32.4132   28.3610   29.2019 C.ar      1 UNK         0.0000 
     62 H62        33.0647   28.6375   30.0258 H         1 UNK         0.0000 
     63 C63        32.4137   29.2194   28.1120 C.ar      1 UNK         0.0000 
     64 H64        33.0228   30.1131   28.2073 H         1 UNK         0.0000 
     65 C65        31.6215   28.8559   26.9876 C.ar      1 UNK         0.0000 
     66 H66        31.5139   29.5458   26.1555 H         1 UNK         0.0000 
     67 C67        30.9549   27.6397   26.9889 C.ar      1 UNK         0.0000 
     68 H68        30.3091   27.4188   26.1451 H         1 UNK         0.0000 
     69 C69        30.9498   26.8078   28.1049 C.ar      1 UNK         0.0000 
     70 H70        30.3934   25.8758   28.1067 H         1 UNK         0.0000 
     71 C71        29.9779   33.6072   35.7573 C.3       1 UNK         0.0000 
     72 H72        29.4157   34.2239   35.0456 H         1 UNK         0.0000 
     73 H73        30.8557   33.1473   35.2848 H         1 UNK         0.0000 
     74 H74        30.3616   34.3112   36.5061 H         1 UNK         0.0000 
     75 S75        28.9814   32.2144   36.4197 S.3       1 UNK         0.0000 
     76 C76        30.3549   31.4222   37.0273 C.3       1 UNK         0.0000 
     77 H77        30.9381   32.0737   37.6908 H         1 UNK         0.0000 
     78 H78        30.9269   31.2451   36.1079 H         1 UNK         0.0000 
     79 H79        30.0076   30.4422   37.3757 H         1 UNK         0.0000 
     80 O80        28.5559   31.5869   35.1213 O.2       1 UNK         0.0000 
     81 C81        32.5760   21.5688   26.7158 C.3       1 UNK         0.0000 
     82 H82        32.4418   20.6153   26.1905 H         1 UNK         0.0000 
     83 H83        33.6475   21.7148   26.9004 H         1 UNK         0.0000 
     84 H84        32.1547   22.3317   26.0498 H         1 UNK         0.0000 
     85 S85        31.7606   21.6433   28.3099 S.3       1 UNK         0.0000 
     86 C86        30.1770   21.1149   27.6127 C.3       1 UNK         0.0000 
     87 H87        30.3011   20.0626   27.3282 H         1 UNK         0.0000 
     88 H88        29.9196   21.7763   26.7764 H         1 UNK         0.0000 
     89 H89        29.3663   21.2904   28.3303 H         1 UNK         0.0000 
     90 O90        31.5697   23.1409   28.3869 O.2       1 UNK         0.0000 
@<TRIPOS>BOND
     1    1    3 1    
     2    1    5 1    
     3    1    2 1    
     4    1    4 1    
     5    5   10 1    
     6    5   14 1    
     7    5    6 1    
     8    6    8 1    
     9    6    7 1    
    10    6    9 1    
    11   10   12 1    
    12   10   11 1    
    13   10   13 1    
    14   14   15 1    
    15   15   17 am   BACKBONE|DICT|INTERRES
    16   15   16 2    
    17   17   18 1    
    18   17   19 1    
    19   19   24 1    
    20   19   25 1    
    21   19   20 1    
    22   20   23 2    
    23   20   21 am   BACKBONE|DICT|INTERRES
    24   21   22 1    
    25   21   58 1    
    26   25   26 1    
    27   25   28 1    
    28   25   27 1    
    29   28   33 ar   
    30   28   29 ar   
    31   29   30 ar   
    32   29   32 1    
    33   30   37 ar   
    34   30   31 1    
    35   33   34 1    
    36   33   35 ar   
    37   35   36 1    
    38   35   37 ar   
    39   37   38 1    
    40   38   39 1    
    41   39   40 ar   
    42   39   44 ar   
    43   40   43 1    
    44   40   41 ar   
    45   41   42 1    
    46   41   48 ar   
    47   44   45 1    
    48   44   46 ar   
    49   46   47 1    
    50   46   48 ar   
    51   48   49 1    
    52   49   50 2    
    53   49   51 1    
    54   51   52 1    
    55   51   54 1    
    56   51   53 1    
    57   54   56 am   BACKBONE|DICT|INTERRES
    58   54   55 1    
    59   56   57 2    
    60   56   58 1    
    61   58   59 1    
    62   58   60 1    
    63   60   61 ar   
    64   60   69 ar   
    65   61   62 1    
    66   61   63 ar   
    67   63   64 1    
    68   63   65 ar   
    69   65   67 ar   
    70   65   66 1    
    71   67   69 ar   
    72   67   68 1    
    73   69   70 1    
    74   71   74 1    
    75   71   75 1    
    76   71   72 1    
    77   71   73 1    
    78   75   76 1    
    79   75   80 2    
    80   76   79 1    
    81   76   77 1    
    82   76   78 1    
    83   81   85 1    
    84   81   82 1    
    85   81   83 1    
    86   81   84 1    
    87   85   86 1    
    88   85   90 2    
    89   86   89 1    
    90   86   87 1    
    91   86   88 1    
@<TRIPOS>SUBSTRUCTURE
     1 UNK         1 GROUP             0       ****    0 ROOT    
@<TRIPOS>MOLECULE
Cpd2-2500
90   91    1
SMALL
USER_CHARGES


@<TRIPOS>ATOM
      1 C1         30.9755   32.4133   29.7491 C.3       1 UNK         0.0000 
      2 H2         30.9610   33.3245   29.1388 H         1 UNK         0.0000 
      3 H3         31.9234   31.8998   29.5454 H         1 UNK         0.0000 
      4 H4         30.1634   31.8856   29.2343 H         1 UNK         0.0000 
      5 C5         30.6993   32.7576   31.1994 C.3       1 UNK         0.0000 
      6 C6         31.9134   33.3796   31.8948 C.3       1 UNK         0.0000 
      7 H7         32.6753   32.6661   32.2325 H         1 UNK         0.0000 
      8 H8         32.4849   34.1020   31.2991 H         1 UNK         0.0000 
      9 H9         31.5771   33.9509   32.7692 H         1 UNK         0.0000 
     10 C10        29.4525   33.6503   31.4054 C.3       1 UNK         0.0000 
     11 H11        29.3543   34.4949   30.7129 H         1 UNK         0.0000 
     12 H12        28.4591   33.2140   31.2481 H         1 UNK         0.0000 
     13 H13        29.5054   34.0381   32.4301 H         1 UNK         0.0000 
     14 O14        30.2455   31.6723   32.0021 O.3       1 UNK         0.0000 
     15 C15        31.0206   30.5837   32.2202 C.2       1 UNK         0.0000 
     16 O16        31.9240   30.1997   31.5083 O.2       1 UNK         0.0000 
     17 N17        30.2632   29.8045   33.1014 N.am      1 UNK         0.0000 
     18 H18        29.4154   30.1678   33.5187 H         1 UNK         0.0000 
     19 C19        30.5617   28.3788   33.4002 C.3       1 UNK         0.0000 
     20 C20        30.5274   27.4919   32.1641 C.2       1 UNK         0.0000 
     21 N21        31.7839   27.1114   31.7278 N.am      1 UNK         0.0000 
     22 H22        32.5249   27.6095   32.2062 H         1 UNK         0.0000 
     23 O23        29.4785   27.0960   31.6407 O.2       1 UNK         0.0000 
     24 H24        31.5940   28.3206   33.7683 H         1 UNK         0.0000 
     25 C25        29.6461   27.9459   34.5446 C.3       1 UNK         0.0000 
     26 H26        28.5867   27.8589   34.2763 H         1 UNK         0.0000 
     27 H27        29.6979   28.6907   35.3481 H         1 UNK         0.0000 
     28 C28        30.1765   26.5857   35.0669 C.ar      1 UNK         0.0000 
     29 C29        29.4844   25.4205   34.6806 C.ar      1 UNK         0.0000 
     30 C30        30.1281   24.2468   34.8759 C.ar      1 UNK         0.0000 
     31 H31        29.7795   23.3743   34.3314 H         1 UNK         0.0000 
     32 H32        28.6251   25.5450   34.0287 H         1 UNK         0.0000 
     33 C33        31.4203   26.5439   35.7761 C.ar      1 UNK         0.0000 
     34 H34        31.9908   27.4510   35.9497 H         1 UNK         0.0000 
     35 C35        31.9098   25.3024   36.1179 C.ar      1 UNK         0.0000 
     36 H36        32.8400   25.1542   36.6579 H         1 UNK         0.0000 
     37 C37        31.2790   24.1715   35.6314 C.ar      1 UNK         0.0000 
     38 O38        31.9229   22.9922   35.7506 O.3       1 UNK         0.0000 
     39 C39        32.6022   22.7037   34.6518 C.ar      1 UNK         0.0000 
     40 C40        32.1655   21.7308   33.6604 C.ar      1 UNK         0.0000 
     41 C41        32.7832   21.6247   32.3134 C.ar      1 UNK         0.0000 
     42 H42        32.2644   20.9413   31.6466 H         1 UNK         0.0000 
     43 H43        31.3116   21.0622   33.7156 H         1 UNK         0.0000 
     44 C44        33.7645   23.3624   34.3126 C.ar      1 UNK         0.0000 
     45 H45        34.2034   24.0895   34.9891 H         1 UNK         0.0000 
     46 C46        34.4079   23.1516   33.0735 C.ar      1 UNK         0.0000 
     47 H47        35.3481   23.6832   32.9657 H         1 UNK         0.0000 
     48 C48        33.9614   22.3320   32.0478 C.ar      1 UNK         0.0000 
     49 C49        34.4841   22.3316   30.6322 C.2       1 UNK         0.0000 
     50 O50        34.4896   21.3776   29.8898 O.2       1 UNK         0.0000 
     51 C51        34.8401   23.7527   30.0826 C.3       1 UNK         0.0000 
     52 H52        35.6369   24.1706   30.7111 H         1 UNK         0.0000 
     53 H53        35.1992   23.5614   29.0642 H         1 UNK         0.0000 
     54 N54        33.6582   24.6521   29.9753 N.am      1 UNK         0.0000 
     55 H55        32.8099   24.3190   29.5334 H         1 UNK         0.0000 
     56 C56        33.4586   25.6561   30.7942 C.2       1 UNK         0.0000 
     57 O57        34.2818   26.0851   31.5813 O.2       1 UNK         0.0000 
     58 C58        32.0574   26.1815   30.6016 C.3       1 UNK         0.0000 
     59 H59        31.4381   25.2786   30.6726 H         1 UNK         0.0000 
     60 C60        31.9018   26.9229   29.2084 C.ar      1 UNK         0.0000 
     61 C61        32.7774   27.9329   28.7865 C.ar      1 UNK         0.0000 
     62 H62        33.7066   28.1748   29.2928 H         1 UNK         0.0000 
     63 C63        32.4329   28.7209   27.6776 C.ar      1 UNK         0.0000 
     64 H64        33.1609   29.5009   27.4725 H         1 UNK         0.0000 
     65 C65        31.3648   28.4253   26.8494 C.ar      1 UNK         0.0000 
     66 H66        31.0538   29.0031   25.9844 H         1 UNK         0.0000 
     67 C67        30.5221   27.3490   27.1787 C.ar      1 UNK         0.0000 
     68 H68        29.6292   27.2472   26.5688 H         1 UNK         0.0000 
     69 C69        30.8106   26.6305   28.3759 C.ar      1 UNK         0.0000 
     70 H70        30.1523   25.8128   28.6534 H         1 UNK         0.0000 
     71 C71        26.2412   32.6856   33.5926 C.3       1 UNK         0.0000 
     72 H72        27.1268   33.2161   33.9651 H         1 UNK         0.0000 
     73 H73        25.2603   33.1064   33.8433 H         1 UNK         0.0000 
     74 H74        26.3646   32.7663   32.5052 H         1 UNK         0.0000 
     75 S75        26.2815   30.9888   34.1105 S.3       1 UNK         0.0000 
     76 C76        26.2115   31.3269   35.8885 C.3       1 UNK         0.0000 
     77 H77        25.6126   32.2389   35.9990 H         1 UNK         0.0000 
     78 H78        27.2647   31.2662   36.1888 H         1 UNK         0.0000 
     79 H79        25.6175   30.5283   36.3486 H         1 UNK         0.0000 
     80 O80        27.7560   30.7287   33.8990 O.2       1 UNK         0.0000 
     81 C81        32.8834   21.6131   27.4235 C.3       1 UNK         0.0000 
     82 H82        32.8594   21.0387   26.4898 H         1 UNK         0.0000 
     83 H83        32.7387   21.0096   28.3274 H         1 UNK         0.0000 
     84 H84        33.7791   22.2177   27.6108 H         1 UNK         0.0000 
     85 S85        31.4265   22.6939   27.4497 S.3       1 UNK         0.0000 
     86 C86        32.0181   24.0176   26.3985 C.3       1 UNK         0.0000 
     87 H87        32.1726   23.5960   25.3973 H         1 UNK         0.0000 
     88 H88        32.9216   24.4844   26.8082 H         1 UNK         0.0000 
     89 H89        31.2125   24.7596   26.4539 H         1 UNK         0.0000 
     90 O90        31.5931   23.3469   28.8013 O.2       1 UNK         0.0000 
@<TRIPOS>BOND
     1    1    4 1    
     2    1    2 1    
     3    1    3 1    
     4    1    5 1    
     5    5   10 1    
     6    5    6 1    
     7    5   14 1    
     8    6    9 1    
     9    6    8 1    
    10    6    7 1    
    11   10   12 1    
    12   10   11 1    
    13   10   13 1    
    14   14   15 1    
    15   15   16 2    
    16   15   17 am   BACKBONE|DICT|INTERRES
    17   17   18 1    
    18   17   19 1    
    19   19   24 1    
    20   19   20 1    
    21   19   25 1    
    22   20   23 2    
    23   20   21 am   BACKBONE|DICT|INTERRES
    24   21   22 1    
    25   21   58 1    
    26   25   27 1    
    27   25   26 1    
    28   25   28 1    
    29   28   29 ar   
    30   28   33 ar   
    31   29   32 1    
    32   29   30 ar   
    33   30   31 1    
    34   30   37 ar   
    35   33   34 1    
    36   33   35 ar   
    37   35   36 1    
    38   35   37 ar   
    39   37   38 1    
    40   38   39 1    
    41   39   44 ar   
    42   39   40 ar   
    43   40   41 ar   
    44   40   43 1    
    45   41   48 ar   
    46   41   42 1    
    47   44   46 ar   
    48   44   45 1    
    49   46   48 ar   
    50   46   47 1    
    51   48   49 1    
    52   49   51 1    
    53   49   50 2    
    54   51   53 1    
    55   51   54 1    
    56   51   52 1    
    57   54   56 am   BACKBONE|DICT|INTERRES
    58   54   55 1    
    59   56   58 1    
    60   56   57 2    
    61   58   59 1    
    62   58   60 1    
    63   60   61 ar   
    64   60   69 ar   
    65   61   63 ar   
    66   61   62 1    
    67   63   64 1    
    68   63   65 ar   
    69   65   66 1    
    70   65   67 ar   
    71   67   68 1    
    72   67   69 ar   
    73   69   70 1    
    74   71   74 1    
    75   71   73 1    
    76   71   72 1    
    77   71   75 1    
    78   75   76 1    
    79   75   80 2    
    80   76   77 1    
    81   76   78 1    
    82   76   79 1    
    83   81   82 1    
    84   81   85 1    
    85   81   83 1    
    86   81   84 1    
    87   85   86 1    
    88   85   90 2    
    89   86   87 1    
    90   86   89 1    
    91   86   88 1    
@<TRIPOS>SUBSTRUCTURE
     1 UNK         1 GROUP             0       ****    0 ROOT    
@<TRIPOS>MOLECULE
Cpd2-3000-MRC
90   91    1
SMALL
USER_CHARGES


@<TRIPOS>ATOM
      1 C1         31.9264   32.4589   30.3870 C.3       1 UNK         0.0000 
      2 H2         32.9016   31.9650   30.4811 H         1 UNK         0.0000 
      3 H3         31.2393   31.7687   29.8820 H         1 UNK         0.0000 
      4 H4         32.1046   33.2503   29.6480 H         1 UNK         0.0000 
      5 C5         31.3948   32.9984   31.7507 C.3       1 UNK         0.0000 
      6 C6         32.5784   33.6480   32.4565 C.3       1 UNK         0.0000 
      7 H7         33.4111   32.9352   32.5025 H         1 UNK         0.0000 
      8 H8         32.9547   34.3340   31.6882 H         1 UNK         0.0000 
      9 H9         32.4040   34.2178   33.3771 H         1 UNK         0.0000 
     10 C10        30.3773   34.1483   31.4758 C.3       1 UNK         0.0000 
     11 H11        30.7203   35.0382   30.9329 H         1 UNK         0.0000 
     12 H12        29.6232   33.6469   30.8565 H         1 UNK         0.0000 
     13 H13        29.6818   34.4635   32.2629 H         1 UNK         0.0000 
     14 O14        30.6963   32.1108   32.5661 O.3       1 UNK         0.0000 
     15 C15        31.4058   30.9013   32.8303 C.2       1 UNK         0.0000 
     16 O16        32.5753   30.5738   32.6142 O.2       1 UNK         0.0000 
     17 N17        30.4871   30.0029   33.2194 N.am      1 UNK         0.0000 
     18 H18        29.5315   30.3391   33.1950 H         1 UNK         0.0000 
     19 C19        30.8321   28.5791   33.5588 C.3       1 UNK         0.0000 
     20 C20        30.6651   27.6976   32.3205 C.2       1 UNK         0.0000 
     21 N21        31.8559   27.2135   31.8080 N.am      1 UNK         0.0000 
     22 H22        32.7600   27.4248   32.2123 H         1 UNK         0.0000 
     23 O23        29.5504   27.4568   31.8415 O.2       1 UNK         0.0000 
     24 H24        31.9027   28.5476   33.7933 H         1 UNK         0.0000 
     25 C25        29.9190   28.0883   34.7533 C.3       1 UNK         0.0000 
     26 H26        28.8668   28.1431   34.4468 H         1 UNK         0.0000 
     27 H27        29.9579   28.7970   35.5897 H         1 UNK         0.0000 
     28 C28        30.1480   26.6550   35.1550 C.ar      1 UNK         0.0000 
     29 C29        29.6827   25.5784   34.3872 C.ar      1 UNK         0.0000 
     30 C30        30.0992   24.2768   34.5899 C.ar      1 UNK         0.0000 
     31 H31        29.8138   23.5001   33.8859 H         1 UNK         0.0000 
     32 H32        28.9612   25.7426   33.5921 H         1 UNK         0.0000 
     33 C33        30.9733   26.4103   36.2227 C.ar      1 UNK         0.0000 
     34 H34        31.3271   27.2460   36.8192 H         1 UNK         0.0000 
     35 C35        31.5443   25.1159   36.4095 C.ar      1 UNK         0.0000 
     36 H36        32.3208   24.9333   37.1452 H         1 UNK         0.0000 
     37 C37        31.1217   24.0529   35.5808 C.ar      1 UNK         0.0000 
     38 O38        31.7437   22.8359   35.5770 O.3       1 UNK         0.0000 
     39 C39        32.5870   22.6089   34.4960 C.ar      1 UNK         0.0000 
     40 C40        32.4433   21.4418   33.7409 C.ar      1 UNK         0.0000 
     41 C41        33.1499   21.4084   32.5094 C.ar      1 UNK         0.0000 
     42 H42        32.9861   20.5604   31.8495 H         1 UNK         0.0000 
     43 H43        31.7398   20.6910   34.0904 H         1 UNK         0.0000 
     44 C44        33.4828   23.6116   34.0748 C.ar      1 UNK         0.0000 
     45 H45        33.6440   24.4675   34.7234 H         1 UNK         0.0000 
     46 C46        34.2327   23.5109   32.9421 C.ar      1 UNK         0.0000 
     47 H47        34.9381   24.2948   32.6813 H         1 UNK         0.0000 
     48 C48        34.0687   22.3766   32.1113 C.ar      1 UNK         0.0000 
     49 C49        34.6199   22.2725   30.7358 C.2       1 UNK         0.0000 
     50 O50        35.2438   21.2899   30.4371 O.2       1 UNK         0.0000 
     51 C51        34.5365   23.5131   29.7677 C.3       1 UNK         0.0000 
     52 H52        35.4553   24.0813   29.9562 H         1 UNK         0.0000 
     53 H53        34.6279   23.1609   28.7321 H         1 UNK         0.0000 
     54 N54        33.3189   24.2618   29.9942 N.am      1 UNK         0.0000 
     55 H55        32.4319   23.8483   29.7311 H         1 UNK         0.0000 
     56 C56        33.2560   25.5988   30.5073 C.2       1 UNK         0.0000 
     57 O57        34.2900   26.1353   30.8171 O.2       1 UNK         0.0000 
     58 C58        31.9084   26.2389   30.6551 C.3       1 UNK         0.0000 
     59 H59        31.2355   25.3972   30.8614 H         1 UNK         0.0000 
     60 C60        31.6523   27.0048   29.3574 C.ar      1 UNK         0.0000 
     61 C61        32.4133   28.0837   29.1123 C.ar      1 UNK         0.0000 
     62 H62        33.1479   28.4360   29.8305 H         1 UNK         0.0000 
     63 C63        32.1904   28.9055   27.9815 C.ar      1 UNK         0.0000 
     64 H64        32.6923   29.8630   27.8812 H         1 UNK         0.0000 
     65 C65        31.2974   28.6024   26.9841 C.ar      1 UNK         0.0000 
     66 H66        31.1966   29.2669   26.1303 H         1 UNK         0.0000 
     67 C67        30.5948   27.4295   27.1269 C.ar      1 UNK         0.0000 
     68 H68        29.8327   27.1787   26.3938 H         1 UNK         0.0000 
     69 C69        30.7757   26.6567   28.3265 C.ar      1 UNK         0.0000 
     70 H70        30.2625   25.7148   28.4962 H         1 UNK         0.0000 
     71 C71        29.1612   21.0804   28.7010 C.3       1 UNK         0.0000 
     72 H72        28.3915   21.8544   28.8064 H         1 UNK         0.0000 
     73 H73        28.8035   20.2347   29.3013 H         1 UNK         0.0000 
     74 H74        29.3090   20.7699   27.6594 H         1 UNK         0.0000 
     75 S75        30.7193   21.6629   29.4032 S.3       1 UNK         0.0000 
     76 C76        29.9130   22.0411   31.0482 C.3       1 UNK         0.0000 
     77 H77        29.7898   21.1422   31.6645 H         1 UNK         0.0000 
     78 H78        28.9331   22.5166   30.9194 H         1 UNK         0.0000 
     79 H79        30.6913   22.7268   31.4042 H         1 UNK         0.0000 
     80 O80        30.9486   23.0572   29.0334 O.2       1 UNK         0.0000 
     81 C81        25.3236   30.9546   32.0589 C.3       1 UNK         0.0000 
     82 H82        25.6582   31.1248   31.0285 H         1 UNK         0.0000 
     83 H83        24.5397   31.6488   32.3853 H         1 UNK         0.0000 
     84 H84        24.9975   29.9209   32.2294 H         1 UNK         0.0000 
     85 S85        26.5676   31.3119   33.2294 S.3       1 UNK         0.0000 
     86 C86        27.4413   32.5734   32.2321 C.3       1 UNK         0.0000 
     87 H87        28.4031   32.7842   32.7165 H         1 UNK         0.0000 
     88 H88        26.8942   33.4820   31.9525 H         1 UNK         0.0000 
     89 H89        27.6554   32.0997   31.2669 H         1 UNK         0.0000 
     90 O90        27.5878   30.1872   33.1024 O.2       1 UNK         0.0000 
@<TRIPOS>BOND
     1    1    5 1    
     2    1    3 1    
     3    1    2 1    
     4    1    4 1    
     5    5   14 1    
     6    5    6 1    
     7    5   10 1    
     8    6    7 1    
     9    6    8 1    
    10    6    9 1    
    11   10   13 1    
    12   10   12 1    
    13   10   11 1    
    14   14   15 1    
    15   15   17 am   BACKBONE|DICT|INTERRES
    16   15   16 2    
    17   17   18 1    
    18   17   19 1    
    19   19   24 1    
    20   19   20 1    
    21   19   25 1    
    22   20   23 2    
    23   20   21 am   BACKBONE|DICT|INTERRES
    24   21   58 1    
    25   21   22 1    
    26   25   26 1    
    27   25   28 1    
    28   25   27 1    
    29   28   29 ar   
    30   28   33 ar   
    31   29   32 1    
    32   29   30 ar   
    33   30   31 1    
    34   30   37 ar   
    35   33   35 ar   
    36   33   34 1    
    37   35   37 ar   
    38   35   36 1    
    39   37   38 1    
    40   38   39 1    
    41   39   40 ar   
    42   39   44 ar   
    43   40   43 1    
    44   40   41 ar   
    45   41   42 1    
    46   41   48 ar   
    47   44   45 1    
    48   44   46 ar   
    49   46   48 ar   
    50   46   47 1    
    51   48   49 1    
    52   49   50 2    
    53   49   51 1    
    54   51   53 1    
    55   51   54 1    
    56   51   52 1    
    57   54   55 1    
    58   54   56 am   BACKBONE|DICT|INTERRES
    59   56   58 1    
    60   56   57 2    
    61   58   59 1    
    62   58   60 1    
    63   60   69 ar   
    64   60   61 ar   
    65   61   62 1    
    66   61   63 ar   
    67   63   65 ar   
    68   63   64 1    
    69   65   67 ar   
    70   65   66 1    
    71   67   69 ar   
    72   67   68 1    
    73   69   70 1    
    74   71   72 1    
    75   71   73 1    
    76   71   74 1    
    77   71   75 1    
    78   75   76 1    
    79   75   80 2    
    80   76   78 1    
    81   76   77 1    
    82   76   79 1    
    83   81   83 1    
    84   81   84 1    
    85   81   82 1    
    86   81   85 1    
    87   85   86 1    
    88   85   90 2    
    89   86   87 1    
    90   86   88 1    
    91   86   89 1    
@<TRIPOS>SUBSTRUCTURE
     1 UNK         1 GROUP             0       ****    0 ROOT    
@<TRIPOS>MOLECULE
Cpd2-3500
90   91    1
SMALL
USER_CHARGES


@<TRIPOS>ATOM
      1 C1         32.1997   32.6200   30.5145 C.3       1 UNK         0.0000 
      2 H2         33.0682   31.9592   30.4067 H         1 UNK         0.0000 
      3 H3         31.2500   32.2472   30.1104 H         1 UNK         0.0000 
      4 H4         32.5049   33.5449   30.0100 H         1 UNK         0.0000 
      5 C5         31.9472   32.9959   32.0322 C.3       1 UNK         0.0000 
      6 C6         33.2373   33.1214   32.8656 C.3       1 UNK         0.0000 
      7 H7         33.9908   32.3674   32.6095 H         1 UNK         0.0000 
      8 H8         33.6951   34.1128   32.7715 H         1 UNK         0.0000 
      9 H9         33.0787   32.9238   33.9330 H         1 UNK         0.0000 
     10 C10        30.9840   34.2590   32.1884 C.3       1 UNK         0.0000 
     11 H11        30.6226   34.2582   33.2244 H         1 UNK         0.0000 
     12 H12        31.3905   35.2308   31.8830 H         1 UNK         0.0000 
     13 H13        30.0909   34.1170   31.5684 H         1 UNK         0.0000 
     14 O14        31.1683   31.9286   32.5471 O.3       1 UNK         0.0000 
     15 C15        31.6623   30.6777   32.5558 C.2       1 UNK         0.0000 
     16 O16        32.7751   30.2442   32.2918 O.2       1 UNK         0.0000 
     17 N17        30.7665   29.9278   33.2567 N.am      1 UNK         0.0000 
     18 H18        29.9874   30.5360   33.4788 H         1 UNK         0.0000 
     19 C19        30.7754   28.3932   33.4607 C.3       1 UNK         0.0000 
     20 C20        30.6753   27.6004   32.2410 C.2       1 UNK         0.0000 
     21 N21        31.9249   27.2547   31.7340 N.am      1 UNK         0.0000 
     22 H22        32.7688   27.5114   32.2318 H         1 UNK         0.0000 
     23 O23        29.6386   27.2934   31.6659 O.2       1 UNK         0.0000 
     24 H24        31.7114   28.2010   34.0008 H         1 UNK         0.0000 
     25 C25        29.6350   27.9109   34.4664 C.3       1 UNK         0.0000 
     26 H26        28.6345   27.7677   34.0413 H         1 UNK         0.0000 
     27 H27        29.6805   28.5713   35.3413 H         1 UNK         0.0000 
     28 C28        30.0972   26.5506   35.0510 C.ar      1 UNK         0.0000 
     29 C29        29.6951   25.3657   34.3679 C.ar      1 UNK         0.0000 
     30 C30        30.2500   24.1235   34.6959 C.ar      1 UNK         0.0000 
     31 H31        30.1316   23.2582   34.0511 H         1 UNK         0.0000 
     32 H32        28.8890   25.4412   33.6448 H         1 UNK         0.0000 
     33 C33        31.0273   26.3883   36.1087 C.ar      1 UNK         0.0000 
     34 H34        31.1737   27.2578   36.7432 H         1 UNK         0.0000 
     35 C35        31.5344   25.0962   36.4980 C.ar      1 UNK         0.0000 
     36 H36        32.2061   25.0115   37.3477 H         1 UNK         0.0000 
     37 C37        31.2478   24.0001   35.7356 C.ar      1 UNK         0.0000 
     38 O38        32.0090   22.8532   35.8239 O.3       1 UNK         0.0000 
     39 C39        32.7285   22.5439   34.7259 C.ar      1 UNK         0.0000 
     40 C40        32.5091   21.4177   33.9592 C.ar      1 UNK         0.0000 
     41 C41        33.0096   21.3530   32.6753 C.ar      1 UNK         0.0000 
     42 H42        32.7252   20.4518   32.1414 H         1 UNK         0.0000 
     43 H43        31.8347   20.6548   34.3356 H         1 UNK         0.0000 
     44 C44        33.5478   23.5704   34.2021 C.ar      1 UNK         0.0000 
     45 H45        33.5405   24.4926   34.7756 H         1 UNK         0.0000 
     46 C46        34.0885   23.5376   32.9226 C.ar      1 UNK         0.0000 
     47 H47        34.6237   24.4018   32.5411 H         1 UNK         0.0000 
     48 C48        33.8362   22.3881   32.1146 C.ar      1 UNK         0.0000 
     49 C49        34.3438   22.2958   30.7516 C.2       1 UNK         0.0000 
     50 O50        34.2904   21.2581   30.1294 O.2       1 UNK         0.0000 
     51 C51        34.7231   23.5945   30.0327 C.3       1 UNK         0.0000 
     52 H52        35.5141   24.0902   30.6082 H         1 UNK         0.0000 
     53 H53        35.0364   23.4290   28.9952 H         1 UNK         0.0000 
     54 N54        33.5190   24.5607   29.9552 N.am      1 UNK         0.0000 
     55 H55        32.6538   24.1959   29.5755 H         1 UNK         0.0000 
     56 C56        33.5230   25.8796   30.3875 C.2       1 UNK         0.0000 
     57 O57        34.5042   26.3836   30.9022 O.2       1 UNK         0.0000 
     58 C58        32.1396   26.6157   30.3857 C.3       1 UNK         0.0000 
     59 H59        31.3237   25.8834   30.3574 H         1 UNK         0.0000 
     60 C60        32.1363   27.5389   29.1517 C.ar      1 UNK         0.0000 
     61 C61        32.9954   28.6491   28.9560 C.ar      1 UNK         0.0000 
     62 H62        33.5433   29.0514   29.8029 H         1 UNK         0.0000 
     63 C63        32.8965   29.4198   27.8031 C.ar      1 UNK         0.0000 
     64 H64        33.6658   30.1848   27.7769 H         1 UNK         0.0000 
     65 C65        32.1158   29.0340   26.7114 C.ar      1 UNK         0.0000 
     66 H66        32.1592   29.5844   25.7760 H         1 UNK         0.0000 
     67 C67        31.3656   27.8610   26.9125 C.ar      1 UNK         0.0000 
     68 H68        30.7483   27.6702   26.0398 H         1 UNK         0.0000 
     69 C69        31.3464   27.0857   28.1103 C.ar      1 UNK         0.0000 
     70 H70        30.6600   26.2542   28.2412 H         1 UNK         0.0000 
     71 C71        25.7074   30.9244   34.8945 C.3       1 UNK         0.0000 
     72 H72        24.8915   30.1937   34.9425 H         1 UNK         0.0000 
     73 H73        25.8200   31.4510   33.9398 H         1 UNK         0.0000 
     74 H74        25.6665   31.6650   35.7035 H         1 UNK         0.0000 
     75 S75        27.1644   30.0047   35.1673 S.3       1 UNK         0.0000 
     76 C76        27.2624   30.1908   36.9135 C.3       1 UNK         0.0000 
     77 H77        26.3690   29.9270   37.4927 H         1 UNK         0.0000 
     78 H78        27.3129   31.2730   37.0868 H         1 UNK         0.0000 
     79 H79        28.1515   29.6086   37.1838 H         1 UNK         0.0000 
     80 O80        28.2123   30.9153   34.6966 O.2       1 UNK         0.0000 
     81 C81        28.8797   24.3377   29.5107 C.3       1 UNK         0.0000 
     82 H82        29.2757   25.1561   30.1245 H         1 UNK         0.0000 
     83 H83        27.9617   23.8669   29.8833 H         1 UNK         0.0000 
     84 H84        28.6925   24.8584   28.5640 H         1 UNK         0.0000 
     85 S85        30.1276   23.0766   29.3744 S.3       1 UNK         0.0000 
     86 C86        30.6172   23.1173   31.1448 C.3       1 UNK         0.0000 
     87 H87        29.7043   22.9245   31.7206 H         1 UNK         0.0000 
     88 H88        31.0531   24.0872   31.4150 H         1 UNK         0.0000 
     89 H89        31.3989   22.3687   31.3241 H         1 UNK         0.0000 
     90 O90        31.1481   23.7309   28.5040 O.2       1 UNK         0.0000 
@<TRIPOS>BOND
     1    1    3 1    
     2    1    5 1    
     3    1    2 1    
     4    1    4 1    
     5    5   10 1    
     6    5   14 1    
     7    5    6 1    
     8    6    9 1    
     9    6    7 1    
    10    6    8 1    
    11   10   13 1    
    12   10   11 1    
    13   10   12 1    
    14   14   15 1    
    15   15   17 am   BACKBONE|DICT|INTERRES
    16   15   16 2    
    17   17   19 1    
    18   17   18 1    
    19   19   24 1    
    20   19   25 1    
    21   19   20 1    
    22   20   23 2    
    23   20   21 am   BACKBONE|DICT|INTERRES
    24   21   22 1    
    25   21   58 1    
    26   25   28 1    
    27   25   27 1    
    28   25   26 1    
    29   28   29 ar   
    30   28   33 ar   
    31   29   32 1    
    32   29   30 ar   
    33   30   31 1    
    34   30   37 ar   
    35   33   34 1    
    36   33   35 ar   
    37   35   36 1    
    38   35   37 ar   
    39   37   38 1    
    40   38   39 1    
    41   39   40 ar   
    42   39   44 ar   
    43   40   43 1    
    44   40   41 ar   
    45   41   42 1    
    46   41   48 ar   
    47   44   45 1    
    48   44   46 ar   
    49   46   47 1    
    50   46   48 ar   
    51   48   49 1    
    52   49   50 2    
    53   49   51 1    
    54   51   54 1    
    55   51   52 1    
    56   51   53 1    
    57   54   56 am   BACKBONE|DICT|INTERRES
    58   54   55 1    
    59   56   58 1    
    60   56   57 2    
    61   58   59 1    
    62   58   60 1    
    63   60   69 ar   
    64   60   61 ar   
    65   61   62 1    
    66   61   63 ar   
    67   63   65 ar   
    68   63   64 1    
    69   65   67 ar   
    70   65   66 1    
    71   67   68 1    
    72   67   69 ar   
    73   69   70 1    
    74   71   74 1    
    75   71   72 1    
    76   71   73 1    
    77   71   75 1    
    78   75   76 1    
    79   75   80 2    
    80   76   77 1    
    81   76   78 1    
    82   76   79 1    
    83   81   83 1    
    84   81   82 1    
    85   81   84 1    
    86   81   85 1    
    87   85   86 1    
    88   85   90 2    
    89   86   87 1    
    90   86   88 1    
    91   86   89 1    
@<TRIPOS>SUBSTRUCTURE
     1 UNK         1 GROUP             0       ****    0 ROOT    
@<TRIPOS>MOLECULE
Cpd2-4000
90   91    1
SMALL
USER_CHARGES


@<TRIPOS>ATOM
      1 C1         31.9178   32.0480   30.1769 C.3       1 UNK         0.0000 
      2 H2         32.0630   32.8898   29.4883 H         1 UNK         0.0000 
      3 H3         32.7973   31.3978   30.0976 H         1 UNK         0.0000 
      4 H4         30.9727   31.5943   29.8549 H         1 UNK         0.0000 
      5 C5         31.7715   32.6567   31.5893 C.3       1 UNK         0.0000 
      6 C6         33.0967   33.1185   32.3017 C.3       1 UNK         0.0000 
      7 H7         33.4747   33.8881   31.6185 H         1 UNK         0.0000 
      8 H8         32.8659   33.5418   33.2876 H         1 UNK         0.0000 
      9 H9         33.8933   32.3654   32.2719 H         1 UNK         0.0000 
     10 C10        30.8930   33.8973   31.4225 C.3       1 UNK         0.0000 
     11 H11        30.7576   34.3860   32.3945 H         1 UNK         0.0000 
     12 H12        31.2816   34.5332   30.6173 H         1 UNK         0.0000 
     13 H13        29.8770   33.6045   31.1278 H         1 UNK         0.0000 
     14 O14        31.0797   31.6677   32.3345 O.3       1 UNK         0.0000 
     15 C15        31.7110   30.5672   32.6632 C.2       1 UNK         0.0000 
     16 O16        32.7904   30.2640   32.3438 O.2       1 UNK         0.0000 
     17 N17        30.7549   29.8714   33.3667 N.am      1 UNK         0.0000 
     18 H18        29.8401   30.2178   33.1043 H         1 UNK         0.0000 
     19 C19        30.8200   28.3920   33.6060 C.3       1 UNK         0.0000 
     20 C20        30.7153   27.6369   32.2620 C.2       1 UNK         0.0000 
     21 N21        31.9662   27.2146   31.7682 N.am      1 UNK         0.0000 
     22 H22        32.7631   27.6308   32.2357 H         1 UNK         0.0000 
     23 O23        29.6845   27.4210   31.6667 O.2       1 UNK         0.0000 
     24 H24        31.7770   28.0631   34.0281 H         1 UNK         0.0000 
     25 C25        29.7976   27.9331   34.6672 C.3       1 UNK         0.0000 
     26 H26        28.7482   27.9899   34.3513 H         1 UNK         0.0000 
     27 H27        29.9675   28.6296   35.4972 H         1 UNK         0.0000 
     28 C28        30.2113   26.5292   35.0250 C.ar      1 UNK         0.0000 
     29 C29        29.6462   25.3826   34.3826 C.ar      1 UNK         0.0000 
     30 C30        30.0735   24.0983   34.7209 C.ar      1 UNK         0.0000 
     31 H31        29.7224   23.2636   34.1200 H         1 UNK         0.0000 
     32 H32        28.9674   25.4378   33.5371 H         1 UNK         0.0000 
     33 C33        31.1014   26.3922   36.0854 C.ar      1 UNK         0.0000 
     34 H34        31.4583   27.2856   36.5904 H         1 UNK         0.0000 
     35 C35        31.5478   25.0761   36.4457 C.ar      1 UNK         0.0000 
     36 H36        32.3629   25.0021   37.1596 H         1 UNK         0.0000 
     37 C37        31.0513   23.9811   35.7523 C.ar      1 UNK         0.0000 
     38 O38        31.8215   22.8608   35.7786 O.3       1 UNK         0.0000 
     39 C39        32.6655   22.5807   34.6959 C.ar      1 UNK         0.0000 
     40 C40        32.5412   21.3454   33.9899 C.ar      1 UNK         0.0000 
     41 C41        33.1409   21.1868   32.7508 C.ar      1 UNK         0.0000 
     42 H42        33.0886   20.2444   32.2135 H         1 UNK         0.0000 
     43 H43        32.0233   20.5139   34.4591 H         1 UNK         0.0000 
     44 C44        33.4130   23.6301   34.1585 C.ar      1 UNK         0.0000 
     45 H45        33.6271   24.5185   34.7460 H         1 UNK         0.0000 
     46 C46        33.9782   23.5352   32.9112 C.ar      1 UNK         0.0000 
     47 H47        34.6190   24.2957   32.4739 H         1 UNK         0.0000 
     48 C48        33.8354   22.3188   32.2069 C.ar      1 UNK         0.0000 
     49 C49        34.4228   22.2755   30.7890 C.2       1 UNK         0.0000 
     50 O50        34.6250   21.2447   30.2191 O.2       1 UNK         0.0000 
     51 C51        34.7252   23.6465   30.0179 C.3       1 UNK         0.0000 
     52 H52        35.6063   24.0323   30.5451 H         1 UNK         0.0000 
     53 H53        35.1479   23.4816   29.0197 H         1 UNK         0.0000 
     54 N54        33.5263   24.5645   29.9678 N.am      1 UNK         0.0000 
     55 H55        32.5771   24.2294   29.8544 H         1 UNK         0.0000 
     56 C56        33.4806   25.8945   30.3126 C.2       1 UNK         0.0000 
     57 O57        34.3937   26.6304   30.3299 O.2       1 UNK         0.0000 
     58 C58        32.0885   26.4578   30.4831 C.3       1 UNK         0.0000 
     59 H59        31.4059   25.6036   30.4010 H         1 UNK         0.0000 
     60 C60        31.6409   27.3377   29.3249 C.ar      1 UNK         0.0000 
     61 C61        30.9157   26.7854   28.2535 C.ar      1 UNK         0.0000 
     62 H62        30.5990   25.7627   28.4394 H         1 UNK         0.0000 
     63 C63        30.5595   27.5549   27.1125 C.ar      1 UNK         0.0000 
     64 H64        29.9525   27.0576   26.3615 H         1 UNK         0.0000 
     65 C65        30.9880   28.8655   26.9488 C.ar      1 UNK         0.0000 
     66 H66        30.7382   29.5572   26.1498 H         1 UNK         0.0000 
     67 C67        31.7417   29.4126   28.0313 C.ar      1 UNK         0.0000 
     68 H68        32.0055   30.4639   27.9614 H         1 UNK         0.0000 
     69 C69        32.1108   28.6663   29.1660 C.ar      1 UNK         0.0000 
     70 H70        32.7978   29.0723   29.9023 H         1 UNK         0.0000 
     71 C71        26.8532   31.9004   34.0450 C.3       1 UNK         0.0000 
     72 H72        27.4409   31.7397   34.9578 H         1 UNK         0.0000 
     73 H73        26.1523   31.0636   33.9344 H         1 UNK         0.0000 
     74 H74        26.2903   32.8316   34.1859 H         1 UNK         0.0000 
     75 S75        27.8200   31.9478   32.5585 S.3       1 UNK         0.0000 
     76 C76        26.5491   32.4561   31.4885 C.3       1 UNK         0.0000 
     77 H77        26.8259   32.1265   30.4795 H         1 UNK         0.0000 
     78 H78        26.3355   33.5312   31.5160 H         1 UNK         0.0000 
     79 H79        25.6296   31.8912   31.6848 H         1 UNK         0.0000 
     80 O80        28.1972   30.4697   32.2604 O.2       1 UNK         0.0000 
     81 C81        28.2659   23.4263   30.0640 C.3       1 UNK         0.0000 
     82 H82        27.9791   23.8632   29.0998 H         1 UNK         0.0000 
     83 H83        28.4470   24.2635   30.7497 H         1 UNK         0.0000 
     84 H84        27.3763   22.8391   30.3225 H         1 UNK         0.0000 
     85 S85        29.6989   22.4935   29.6417 S.3       1 UNK         0.0000 
     86 C86        29.8636   21.7845   31.3662 C.3       1 UNK         0.0000 
     87 H87        29.9311   20.6891   31.3500 H         1 UNK         0.0000 
     88 H88        29.0351   22.1768   31.9683 H         1 UNK         0.0000 
     89 H89        30.7876   22.1614   31.8216 H         1 UNK         0.0000 
     90 O90        30.7725   23.5300   29.5781 O.2       1 UNK         0.0000 
@<TRIPOS>BOND
     1    1    4 1    
     2    1    2 1    
     3    1    3 1    
     4    1    5 1    
     5    5   10 1    
     6    5    6 1    
     7    5   14 1    
     8    6    7 1    
     9    6    8 1    
    10    6    9 1    
    11   10   13 1    
    12   10   12 1    
    13   10   11 1    
    14   14   15 1    
    15   15   16 2    
    16   15   17 am   BACKBONE|DICT|INTERRES
    17   17   18 1    
    18   17   19 1    
    19   19   24 1    
    20   19   20 1    
    21   19   25 1    
    22   20   21 am   BACKBONE|DICT|INTERRES
    23   20   23 2    
    24   21   58 1    
    25   21   22 1    
    26   25   26 1    
    27   25   27 1    
    28   25   28 1    
    29   28   29 ar   
    30   28   33 ar   
    31   29   32 1    
    32   29   30 ar   
    33   30   31 1    
    34   30   37 ar   
    35   33   34 1    
    36   33   35 ar   
    37   35   37 ar   
    38   35   36 1    
    39   37   38 1    
    40   38   39 1    
    41   39   40 ar   
    42   39   44 ar   
    43   40   41 ar   
    44   40   43 1    
    45   41   42 1    
    46   41   48 ar   
    47   44   46 ar   
    48   44   45 1    
    49   46   48 ar   
    50   46   47 1    
    51   48   49 1    
    52   49   50 2    
    53   49   51 1    
    54   51   54 1    
    55   51   53 1    
    56   51   52 1    
    57   54   55 1    
    58   54   56 am   BACKBONE|DICT|INTERRES
    59   56   57 2    
    60   56   58 1    
    61   58   59 1    
    62   58   60 1    
    63   60   69 ar   
    64   60   61 ar   
    65   61   63 ar   
    66   61   62 1    
    67   63   64 1    
    68   63   65 ar   
    69   65   66 1    
    70   65   67 ar   
    71   67   68 1    
    72   67   69 ar   
    73   69   70 1    
    74   71   74 1    
    75   71   75 1    
    76   71   72 1    
    77   71   73 1    
    78   75   76 1    
    79   75   80 2    
    80   76   78 1    
    81   76   77 1    
    82   76   79 1    
    83   81   82 1    
    84   81   83 1    
    85   81   84 1    
    86   81   85 1    
    87   85   90 2    
    88   85   86 1    
    89   86   87 1    
    90   86   88 1    
    91   86   89 1    
@<TRIPOS>SUBSTRUCTURE
     1 UNK         1 GROUP             0       ****    0 ROOT    
@<TRIPOS>MOLECULE
Cpd2-4500
90   91    1
SMALL
USER_CHARGES


@<TRIPOS>ATOM
      1 C1         30.6733   32.4980   29.8436 C.3       1 UNK         0.0000 
      2 H2         29.7093   32.1345   29.4648 H         1 UNK         0.0000 
      3 H3         31.0847   33.3167   29.2409 H         1 UNK         0.0000 
      4 H4         31.4629   31.7524   29.6966 H         1 UNK         0.0000 
      5 C5         30.4585   33.0543   31.3416 C.3       1 UNK         0.0000 
      6 C6         31.7146   33.7361   31.9729 C.3       1 UNK         0.0000 
      7 H7         32.6317   33.1422   31.8792 H         1 UNK         0.0000 
      8 H8         31.9144   34.6636   31.4242 H         1 UNK         0.0000 
      9 H9         31.5006   34.0264   33.0095 H         1 UNK         0.0000 
     10 C10        29.3320   34.0261   31.3830 C.3       1 UNK         0.0000 
     11 H11        29.1991   34.5953   32.3114 H         1 UNK         0.0000 
     12 H12        29.3875   34.7856   30.5925 H         1 UNK         0.0000 
     13 H13        28.3538   33.5388   31.2883 H         1 UNK         0.0000 
     14 O14        30.0362   32.0217   32.1630 O.3       1 UNK         0.0000 
     15 C15        30.7753   30.9364   32.3197 C.2       1 UNK         0.0000 
     16 O16        31.8690   30.7326   31.8749 O.2       1 UNK         0.0000 
     17 N17        30.1163   30.0063   33.1478 N.am      1 UNK         0.0000 
     18 H18        29.3334   30.3017   33.7191 H         1 UNK         0.0000 
     19 C19        30.5401   28.6296   33.4624 C.3       1 UNK         0.0000 
     20 C20        30.5919   27.6937   32.2846 C.2       1 UNK         0.0000 
     21 N21        31.7825   27.0583   31.9695 N.am      1 UNK         0.0000 
     22 H22        32.5072   27.3813   32.5987 H         1 UNK         0.0000 
     23 O23        29.5618   27.3100   31.7109 O.2       1 UNK         0.0000 
     24 H24        31.5810   28.6304   33.8067 H         1 UNK         0.0000 
     25 C25        29.6275   28.0568   34.5822 C.3       1 UNK         0.0000 
     26 H26        28.5595   28.1241   34.3412 H         1 UNK         0.0000 
     27 H27        29.8211   28.6740   35.4686 H         1 UNK         0.0000 
     28 C28        30.1061   26.6436   35.0729 C.ar      1 UNK         0.0000 
     29 C29        29.6072   25.5592   34.4109 C.ar      1 UNK         0.0000 
     30 C30        30.1537   24.2255   34.6404 C.ar      1 UNK         0.0000 
     31 H31        29.9469   23.3451   34.0389 H         1 UNK         0.0000 
     32 H32        28.8075   25.6318   33.6797 H         1 UNK         0.0000 
     33 C33        31.1712   26.5428   35.9864 C.ar      1 UNK         0.0000 
     34 H34        31.4775   27.4459   36.5058 H         1 UNK         0.0000 
     35 C35        31.6761   25.2626   36.2549 C.ar      1 UNK         0.0000 
     36 H36        32.4411   25.1044   37.0087 H         1 UNK         0.0000 
     37 C37        31.2575   24.1325   35.5638 C.ar      1 UNK         0.0000 
     38 O38        31.8838   22.9329   35.6161 O.3       1 UNK         0.0000 
     39 C39        32.7669   22.6429   34.6536 C.ar      1 UNK         0.0000 
     40 C40        32.3351   21.6378   33.7565 C.ar      1 UNK         0.0000 
     41 C41        32.8792   21.4630   32.4864 C.ar      1 UNK         0.0000 
     42 H42        32.5946   20.6501   31.8243 H         1 UNK         0.0000 
     43 H43        31.4401   21.1100   34.0732 H         1 UNK         0.0000 
     44 C44        33.8234   23.4345   34.2394 C.ar      1 UNK         0.0000 
     45 H45        34.1186   24.2623   34.8768 H         1 UNK         0.0000 
     46 C46        34.3299   23.3740   32.9387 C.ar      1 UNK         0.0000 
     47 H47        35.1121   24.0960   32.7247 H         1 UNK         0.0000 
     48 C48        33.9545   22.3471   31.9946 C.ar      1 UNK         0.0000 
     49 C49        34.4967   22.2832   30.5831 C.2       1 UNK         0.0000 
     50 O50        34.8058   21.2155   29.9742 O.2       1 UNK         0.0000 
     51 C51        34.7335   23.6236   29.8462 C.3       1 UNK         0.0000 
     52 H52        35.5902   24.1683   30.2607 H         1 UNK         0.0000 
     53 H53        34.9121   23.4043   28.7868 H         1 UNK         0.0000 
     54 N54        33.5377   24.4702   29.9635 N.am      1 UNK         0.0000 
     55 H55        32.7298   24.1137   29.4663 H         1 UNK         0.0000 
     56 C56        33.3703   25.5412   30.7798 C.2       1 UNK         0.0000 
     57 O57        34.3494   26.0634   31.3477 O.2       1 UNK         0.0000 
     58 C58        31.9312   26.0853   30.8744 C.3       1 UNK         0.0000 
     59 H59        31.2087   25.2643   30.9688 H         1 UNK         0.0000 
     60 C60        31.5359   26.7797   29.5616 C.ar      1 UNK         0.0000 
     61 C61        30.6365   26.1758   28.6773 C.ar      1 UNK         0.0000 
     62 H62        30.2509   25.1796   28.8740 H         1 UNK         0.0000 
     63 C63        30.3480   26.7459   27.4241 C.ar      1 UNK         0.0000 
     64 H64        29.6864   26.3003   26.6869 H         1 UNK         0.0000 
     65 C65        30.6892   28.0500   27.1690 C.ar      1 UNK         0.0000 
     66 H66        30.3301   28.4654   26.2325 H         1 UNK         0.0000 
     67 C67        31.5156   28.7983   28.0657 C.ar      1 UNK         0.0000 
     68 H68        31.8483   29.8163   27.8858 H         1 UNK         0.0000 
     69 C69        32.0069   28.0885   29.2011 C.ar      1 UNK         0.0000 
     70 H70        32.6815   28.5909   29.8878 H         1 UNK         0.0000 
     71 C71        31.1178   20.1839   29.4006 C.3       1 UNK         0.0000 
     72 H72        31.2338   20.1509   28.3107 H         1 UNK         0.0000 
     73 H73        30.3582   19.4208   29.6104 H         1 UNK         0.0000 
     74 H74        32.1109   19.9456   29.8005 H         1 UNK         0.0000 
     75 S75        30.6771   21.8593   29.8030 S.3       1 UNK         0.0000 
     76 C76        29.1987   21.8109   28.7823 C.3       1 UNK         0.0000 
     77 H77        28.5037   21.1028   29.2487 H         1 UNK         0.0000 
     78 H78        29.3996   21.3855   27.7915 H         1 UNK         0.0000 
     79 H79        28.6697   22.7725   28.7642 H         1 UNK         0.0000 
     80 O80        31.6271   22.5759   28.9192 O.2       1 UNK         0.0000 
     81 C81        26.2113   30.9894   32.9506 C.3       1 UNK         0.0000 
     82 H82        26.4562   30.0959   32.3635 H         1 UNK         0.0000 
     83 H83        26.9028   31.8225   32.7774 H         1 UNK         0.0000 
     84 H84        25.1425   31.1891   32.8059 H         1 UNK         0.0000 
     85 S85        26.5623   30.3649   34.5512 S.3       1 UNK         0.0000 
     86 C86        25.6108   31.6557   35.5328 C.3       1 UNK         0.0000 
     87 H87        24.5428   31.4225   35.4406 H         1 UNK         0.0000 
     88 H88        25.8076   32.6969   35.2496 H         1 UNK         0.0000 
     89 H89        25.9040   31.4752   36.5749 H         1 UNK         0.0000 
     90 O90        28.0489   30.6630   34.8131 O.2       1 UNK         0.0000 
@<TRIPOS>BOND
     1    1    2 1    
     2    1    3 1    
     3    1    4 1    
     4    1    5 1    
     5    5   10 1    
     6    5    6 1    
     7    5   14 1    
     8    6    8 1    
     9    6    7 1    
    10    6    9 1    
    11   10   13 1    
    12   10   12 1    
    13   10   11 1    
    14   14   15 1    
    15   15   16 2    
    16   15   17 am   BACKBONE|DICT|INTERRES
    17   17   18 1    
    18   17   19 1    
    19   19   24 1    
    20   19   20 1    
    21   19   25 1    
    22   20   23 2    
    23   20   21 am   BACKBONE|DICT|INTERRES
    24   21   58 1    
    25   21   22 1    
    26   25   26 1    
    27   25   27 1    
    28   25   28 1    
    29   28   29 ar   
    30   28   33 ar   
    31   29   32 1    
    32   29   30 ar   
    33   30   31 1    
    34   30   37 ar   
    35   33   34 1    
    36   33   35 ar   
    37   35   36 1    
    38   35   37 ar   
    39   37   38 1    
    40   38   39 1    
    41   39   40 ar   
    42   39   44 ar   
    43   40   41 ar   
    44   40   43 1    
    45   41   42 1    
    46   41   48 ar   
    47   44   46 ar   
    48   44   45 1    
    49   46   48 ar   
    50   46   47 1    
    51   48   49 1    
    52   49   51 1    
    53   49   50 2    
    54   51   53 1    
    55   51   54 1    
    56   51   52 1    
    57   54   56 am   BACKBONE|DICT|INTERRES
    58   54   55 1    
    59   56   58 1    
    60   56   57 2    
    61   58   59 1    
    62   58   60 1    
    63   60   61 ar   
    64   60   69 ar   
    65   61   63 ar   
    66   61   62 1    
    67   63   64 1    
    68   63   65 ar   
    69   65   66 1    
    70   65   67 ar   
    71   67   68 1    
    72   67   69 ar   
    73   69   70 1    
    74   71   72 1    
    75   71   75 1    
    76   71   73 1    
    77   71   74 1    
    78   75   80 2    
    79   75   76 1    
    80   76   78 1    
    81   76   79 1    
    82   76   77 1    
    83   81   83 1    
    84   81   84 1    
    85   81   82 1    
    86   81   85 1    
    87   85   86 1    
    88   85   90 2    
    89   86   87 1    
    90   86   88 1    
    91   86   89 1    
@<TRIPOS>SUBSTRUCTURE
     1 UNK         1 GROUP             0       ****    0 ROOT    
@<TRIPOS>MOLECULE
Cpd2-5000
90   91    1
SMALL
USER_CHARGES


@<TRIPOS>ATOM
      1 C1         32.1411   33.9653   32.5417 C.3       1 UNK         0.0000 
      2 H2         32.4643   34.1144   33.5792 H         1 UNK         0.0000 
      3 H3         32.5274   34.8539   32.0261 H         1 UNK         0.0000 
      4 H4         31.0520   33.8758   32.4504 H         1 UNK         0.0000 
      5 C5         32.9215   32.7314   32.0060 C.3       1 UNK         0.0000 
      6 C6         32.6389   32.6517   30.4992 C.3       1 UNK         0.0000 
      7 H7         33.1800   31.7589   30.1624 H         1 UNK         0.0000 
      8 H8         31.5788   32.4541   30.3007 H         1 UNK         0.0000 
      9 H9         33.0373   33.5370   29.9888 H         1 UNK         0.0000 
     10 C10        34.4042   32.7970   32.3511 C.3       1 UNK         0.0000 
     11 H11        34.8838   33.7769   32.4578 H         1 UNK         0.0000 
     12 H12        34.5786   32.3257   33.3257 H         1 UNK         0.0000 
     13 H13        35.1172   32.3060   31.6774 H         1 UNK         0.0000 
     14 O14        32.2577   31.6574   32.6808 O.3       1 UNK         0.0000 
     15 C15        32.4985   30.3684   32.4985 C.2       1 UNK         0.0000 
     16 O16        33.4370   29.9186   31.8736 O.2       1 UNK         0.0000 
     17 N17        31.5550   29.6819   33.2418 N.am      1 UNK         0.0000 
     18 H18        30.8928   30.2408   33.7672 H         1 UNK         0.0000 
     19 C19        31.4870   28.2656   33.5326 C.3       1 UNK         0.0000 
     20 C20        30.9191   27.4544   32.3274 C.2       1 UNK         0.0000 
     21 N21        31.8365   26.8067   31.5069 N.am      1 UNK         0.0000 
     22 H22        32.7943   26.6915   31.8154 H         1 UNK         0.0000 
     23 O23        29.7447   27.3925   32.0356 O.2       1 UNK         0.0000 
     24 H24        32.4800   27.8331   33.7084 H         1 UNK         0.0000 
     25 C25        30.6236   28.0360   34.8620 C.3       1 UNK         0.0000 
     26 H26        29.6171   28.3954   34.6152 H         1 UNK         0.0000 
     27 H27        31.0582   28.6804   35.6351 H         1 UNK         0.0000 
     28 C28        30.5386   26.6113   35.2501 C.ar      1 UNK         0.0000 
     29 C29        29.5825   25.8177   34.7634 C.ar      1 UNK         0.0000 
     30 C30        29.7703   24.4307   34.7686 C.ar      1 UNK         0.0000 
     31 H31        29.1081   23.7690   34.2181 H         1 UNK         0.0000 
     32 H32        28.7160   26.1304   34.1886 H         1 UNK         0.0000 
     33 C33        31.6402   26.0691   35.9324 C.ar      1 UNK         0.0000 
     34 H34        32.3903   26.7777   36.2720 H         1 UNK         0.0000 
     35 C35        31.7704   24.7440   36.0987 C.ar      1 UNK         0.0000 
     36 H36        32.5321   24.2521   36.6965 H         1 UNK         0.0000 
     37 C37        30.8219   23.8560   35.4823 C.ar      1 UNK         0.0000 
     38 O38        31.1857   22.5588   35.4438 O.3       1 UNK         0.0000 
     39 C39        32.2247   22.2915   34.5621 C.ar      1 UNK         0.0000 
     40 C40        31.8861   22.2076   33.1595 C.ar      1 UNK         0.0000 
     41 C41        32.8169   22.3235   32.1758 C.ar      1 UNK         0.0000 
     42 H42        32.5078   22.2870   31.1363 H         1 UNK         0.0000 
     43 H43        30.8254   22.0421   32.9921 H         1 UNK         0.0000 
     44 C44        33.5557   22.5389   34.8720 C.ar      1 UNK         0.0000 
     45 H45        33.8313   22.7354   35.9042 H         1 UNK         0.0000 
     46 C46        34.5330   22.7030   33.8433 C.ar      1 UNK         0.0000 
     47 H47        35.5567   23.0046   34.0482 H         1 UNK         0.0000 
     48 C48        34.1591   22.6413   32.4582 C.ar      1 UNK         0.0000 
     49 C49        35.1562   23.2672   31.4294 C.2       1 UNK         0.0000 
     50 O50        36.3425   23.2297   31.7333 O.2       1 UNK         0.0000 
     51 C51        34.5148   23.8065   30.1809 C.3       1 UNK         0.0000 
     52 H52        35.3311   24.2064   29.5665 H         1 UNK         0.0000 
     53 H53        34.0715   22.9021   29.7458 H         1 UNK         0.0000 
     54 N54        33.5459   24.8752   30.4397 N.am      1 UNK         0.0000 
     55 H55        33.6612   25.4582   31.2603 H         1 UNK         0.0000 
     56 C56        32.5363   25.2735   29.5856 C.2       1 UNK         0.0000 
     57 O57        32.5142   24.7888   28.4544 O.2       1 UNK         0.0000 
     58 C58        31.5673   26.2395   30.0951 C.3       1 UNK         0.0000 
     59 H59        30.5921   25.7413   30.0403 H         1 UNK         0.0000 
     60 C60        31.3078   27.2785   29.0327 C.ar      1 UNK         0.0000 
     61 C61        31.8883   28.5302   29.0505 C.ar      1 UNK         0.0000 
     62 H62        32.7323   28.6985   29.7128 H         1 UNK         0.0000 
     63 C63        31.5399   29.5393   28.0595 C.ar      1 UNK         0.0000 
     64 H64        32.0241   30.5115   28.0977 H         1 UNK         0.0000 
     65 C65        30.5726   29.2387   27.0680 C.ar      1 UNK         0.0000 
     66 H66        30.3816   29.8793   26.2122 H         1 UNK         0.0000 
     67 C67        29.9881   27.9882   27.0973 C.ar      1 UNK         0.0000 
     68 H68        29.1616   27.7500   26.4331 H         1 UNK         0.0000 
     69 C69        30.3699   27.0887   28.0574 C.ar      1 UNK         0.0000 
     70 H70        29.8303   26.1474   28.0424 H         1 UNK         0.0000 
     71 C71        36.6628   27.2181   31.9103 C.3       1 UNK         0.0000 
     72 H72        37.6070   27.6594   32.2513 H         1 UNK         0.0000 
     73 H73        36.2027   27.7911   31.0965 H         1 UNK         0.0000 
     74 H74        36.6872   26.1539   31.6464 H         1 UNK         0.0000 
     75 S75        35.4339   27.3407   33.2595 S.3       1 UNK         0.0000 
     76 C76        36.3033   26.3030   34.4789 C.3       1 UNK         0.0000 
     77 H77        37.1183   26.8490   34.9707 H         1 UNK         0.0000 
     78 H78        36.7939   25.4534   33.9885 H         1 UNK         0.0000 
     79 H79        35.6190   26.0525   35.2987 H         1 UNK         0.0000 
     80 O80        34.2997   26.4120   32.9493 O.2       1 UNK         0.0000 
     81 C81        27.0679   30.8148   34.9319 C.3       1 UNK         0.0000 
     82 H82        27.2822   29.7409   34.8651 H         1 UNK         0.0000 
     83 H83        26.1699   31.1587   34.4053 H         1 UNK         0.0000 
     84 H84        26.9678   31.1631   35.9678 H         1 UNK         0.0000 
     85 S85        28.4562   31.7765   34.2088 S.3       1 UNK         0.0000 
     86 C86        28.3096   31.2091   32.4990 C.3       1 UNK         0.0000 
     87 H87        28.0156   30.1533   32.4624 H         1 UNK         0.0000 
     88 H88        29.3232   31.3029   32.0913 H         1 UNK         0.0000 
     89 H89        27.5682   31.8718   32.0371 H         1 UNK         0.0000 
     90 O90        29.6722   31.1178   34.7086 O.2       1 UNK         0.0000 
@<TRIPOS>BOND
     1    1    4 1    
     2    1    3 1    
     3    1    2 1    
     4    1    5 1    
     5    5    6 1    
     6    5   10 1    
     7    5   14 1    
     8    6    8 1    
     9    6    9 1    
    10    6    7 1    
    11   10   11 1    
    12   10   12 1    
    13   10   13 1    
    14   14   15 1    
    15   15   16 2    
    16   15   17 am   BACKBONE|DICT|INTERRES
    17   17   18 1    
    18   17   19 1    
    19   19   24 1    
    20   19   20 1    
    21   19   25 1    
    22   20   23 2    
    23   20   21 am   BACKBONE|DICT|INTERRES
    24   21   58 1    
    25   21   22 1    
    26   25   26 1    
    27   25   27 1    
    28   25   28 1    
    29   28   29 ar   
    30   28   33 ar   
    31   29   32 1    
    32   29   30 ar   
    33   30   31 1    
    34   30   37 ar   
    35   33   34 1    
    36   33   35 ar   
    37   35   36 1    
    38   35   37 ar   
    39   37   38 1    
    40   38   39 1    
    41   39   40 ar   
    42   39   44 ar   
    43   40   41 ar   
    44   40   43 1    
    45   41   42 1    
    46   41   48 ar   
    47   44   46 ar   
    48   44   45 1    
    49   46   48 ar   
    50   46   47 1    
    51   48   49 1    
    52   49   51 1    
    53   49   50 2    
    54   51   52 1    
    55   51   54 1    
    56   51   53 1    
    57   54   55 1    
    58   54   56 am   BACKBONE|DICT|INTERRES
    59   56   57 2    
    60   56   58 1    
    61   58   59 1    
    62   58   60 1    
    63   60   69 ar   
    64   60   61 ar   
    65   61   63 ar   
    66   61   62 1    
    67   63   64 1    
    68   63   65 ar   
    69   65   66 1    
    70   65   67 ar   
    71   67   68 1    
    72   67   69 ar   
    73   69   70 1    
    74   71   75 1    
    75   71   73 1    
    76   71   72 1    
    77   71   74 1    
    78   75   76 1    
    79   75   80 2    
    80   76   77 1    
    81   76   78 1    
    82   76   79 1    
    83   81   85 1    
    84   81   83 1    
    85   81   82 1    
    86   81   84 1    
    87   85   86 1    
    88   85   90 2    
    89   86   89 1    
    90   86   87 1    
    91   86   88 1    
@<TRIPOS>SUBSTRUCTURE
     1 UNK         1 GROUP             0       ****    0 ROOT    
