@<TRIPOS>MOLECULE
Cpd2-500
80   82    1
SMALL
USER_CHARGES


@<TRIPOS>ATOM
      1 C1         -5.5080    0.0528   -2.2865 C.3       1 UNK         0.0000 
      2 H2         -6.3662    0.3380   -2.9021 H         1 UNK         0.0000 
      3 H3         -4.9981   -0.7828   -2.7763 H         1 UNK         0.0000 
      4 H4         -5.8659   -0.2685   -1.3087 H         1 UNK         0.0000 
      5 C5         -4.5630    1.2456   -2.1732 C.3       1 UNK         0.0000 
      6 C6         -4.1485    1.7219   -3.5601 C.3       1 UNK         0.0000 
      7 H7         -3.7127    0.9013   -4.1367 H         1 UNK         0.0000 
      8 H8         -5.0263    2.0909   -4.0966 H         1 UNK         0.0000 
      9 H9         -3.4214    2.5362   -3.4851 H         1 UNK         0.0000 
     10 C10        -5.1644    2.3991   -1.3763 C.3       1 UNK         0.0000 
     11 H11        -4.4328    3.2067   -1.2754 H         1 UNK         0.0000 
     12 H12        -6.0329    2.7886   -1.9153 H         1 UNK         0.0000 
     13 H13        -5.4837    2.0753   -0.3853 H         1 UNK         0.0000 
     14 O14        -3.2921    0.8310   -1.5691 O.3       1 UNK         0.0000 
     15 C15        -3.2605    0.3719   -0.3040 C.2       1 UNK         0.0000 
     16 O16        -4.2391    0.1639    0.3967 O.2       1 UNK         0.0000 
     17 N17        -1.9758    0.1721    0.0985 N.am      1 UNK         0.0000 
     18 H18        -1.2461    0.2483   -0.6101 H         1 UNK         0.0000 
     19 C19        -1.7239   -0.5784    1.3088 C.3       1 UNK         0.0000 
     20 C20        -0.4474   -0.1509    2.0372 C.2       1 UNK         0.0000 
     21 N21         0.4024    0.7153    1.4262 N.am      1 UNK         0.0000 
     22 H22         0.1133    1.1597    0.5573 H         1 UNK         0.0000 
     23 O23        -0.2335   -0.6060    3.1577 O.2       1 UNK         0.0000 
     24 H24        -2.5335   -0.3386    2.0036 H         1 UNK         0.0000 
     25 C25        -1.7603   -2.1133    1.0783 C.3       1 UNK         0.0000 
     26 H26        -2.7650   -2.3488    0.7118 H         1 UNK         0.0000 
     27 H27        -1.6303   -2.6068    2.0448 H         1 UNK         0.0000 
     28 C28        -0.7109   -2.5769    0.1001 C.ar      1 UNK         0.0000 
     29 C29        -0.8489   -2.3234   -1.2728 C.ar      1 UNK         0.0000 
     30 C30         0.2019   -2.5584   -2.1543 C.ar      1 UNK         0.0000 
     31 H31         0.1213   -2.2967   -3.2051 H         1 UNK         0.0000 
     32 H32        -1.7771   -1.9053   -1.6542 H         1 UNK         0.0000 
     33 C33         0.4585   -3.2023    0.5437 C.ar      1 UNK         0.0000 
     34 H34         0.5708   -3.4445    1.5975 H         1 UNK         0.0000 
     35 C35         1.5096   -3.4709   -0.3346 C.ar      1 UNK         0.0000 
     36 H36         2.4307   -3.9258    0.0162 H         1 UNK         0.0000 
     37 C37         1.3941   -3.0824   -1.6634 C.ar      1 UNK         0.0000 
     38 O38         2.5190   -3.1079   -2.4994 O.3       1 UNK         0.0000 
     39 C39         3.0758   -1.8336   -2.4991 C.ar      1 UNK         0.0000 
     40 C40         3.7402   -1.3885   -1.3565 C.ar      1 UNK         0.0000 
     41 C41         4.0280   -0.0395   -1.2201 C.ar      1 UNK         0.0000 
     42 H42         4.4609    0.3222   -0.2915 H         1 UNK         0.0000 
     43 H43         3.9482   -2.0842   -0.5513 H         1 UNK         0.0000 
     44 C44         2.8660   -0.9892   -3.5855 C.ar      1 UNK         0.0000 
     45 H45         2.3826   -1.3705   -4.4789 H         1 UNK         0.0000 
     46 C46         3.2083    0.3557   -3.4631 C.ar      1 UNK         0.0000 
     47 H47         3.0159    1.0434   -4.2820 H         1 UNK         0.0000 
     48 C48         3.7192    0.8487   -2.2573 C.ar      1 UNK         0.0000 
     49 C49         3.7997    2.3214   -2.0618 C.2       1 UNK         0.0000 
     50 O50         4.0497    3.0824   -2.9792 O.2       1 UNK         0.0000 
     51 C51         3.4907    2.8929   -0.6784 C.3       1 UNK         0.0000 
     52 H52         4.4162    2.8998   -0.0886 H         1 UNK         0.0000 
     53 H53         3.1939    3.9374   -0.8187 H         1 UNK         0.0000 
     54 N54         2.4917    2.1269    0.0494 N.am      1 UNK         0.0000 
     55 H55         1.7953    1.6048   -0.4843 H         1 UNK         0.0000 
     56 C56         2.4241    2.2307    1.3917 C.2       1 UNK         0.0000 
     57 O57         3.1371    3.0027    2.0301 O.2       1 UNK         0.0000 
     58 C58         1.5355    1.2477    2.1733 C.3       1 UNK         0.0000 
     59 H59         1.1717    1.8048    3.0434 H         1 UNK         0.0000 
     60 C60         2.4869    0.1604    2.6641 C.ar      1 UNK         0.0000 
     61 C61         3.1597    0.3272    3.8753 C.ar      1 UNK         0.0000 
     62 H62         2.9637    1.2076    4.4812 H         1 UNK         0.0000 
     63 C63         4.0727   -0.6326    4.3098 C.ar      1 UNK         0.0000 
     64 H64         4.5877   -0.4977    5.2558 H         1 UNK         0.0000 
     65 C65         4.3161   -1.7677    3.5357 C.ar      1 UNK         0.0000 
     66 H66         5.0203   -2.5203    3.8758 H         1 UNK         0.0000 
     67 C67         3.6432   -1.9337    2.3250 C.ar      1 UNK         0.0000 
     68 H68         3.8232   -2.8235    1.7278 H         1 UNK         0.0000 
     69 C69         2.7365   -0.9690    1.8873 C.ar      1 UNK         0.0000 
     70 H70         2.1997   -1.1001    0.9512 H         1 UNK         0.0000 
     71 C71        -0.7344    1.1058   -3.9197 C.3       1 UNK         0.0000 
     72 H72        -1.1279    1.6964   -4.7494 H         1 UNK         0.0000 
     73 H73        -1.4413    0.3215   -3.6445 H         1 UNK         0.0000 
     74 H74         0.2428    0.6798   -4.1590 H         1 UNK         0.0000 
     75 S75        -0.5438    2.1530   -2.4686 S.3       1 UNK         0.0000 
     76 C76         0.6992    3.2835   -3.1126 C.3       1 UNK         0.0000 
     77 H77         1.0290    3.9097   -2.2819 H         1 UNK         0.0000 
     78 H78         0.2329    3.9065   -3.8787 H         1 UNK         0.0000 
     79 H79         1.5307    2.7145   -3.5306 H         1 UNK         0.0000 
     80 O80         0.2101    1.2371   -1.4714 O.2       1 UNK         0.0000 
@<TRIPOS>BOND
     1    1    3 1    
     2    1    2 1    
     3    1    4 1    
     4    1    5 1    
     5    5   14 1    
     6    5    6 1    
     7    5   10 1    
     8    6    7 1    
     9    6    8 1    
    10    6    9 1    
    11   10   11 1    
    12   10   12 1    
    13   10   13 1    
    14   14   15 1    
    15   15   17 am   BACKBONE|DICT|INTERRES
    16   15   16 2    
    17   17   19 1    
    18   17   18 1    
    19   19   24 1    
    20   19   25 1    
    21   19   20 1    
    22   20   21 am   BACKBONE|DICT|INTERRES
    23   20   23 2    
    24   21   22 1    
    25   21   58 1    
    26   25   26 1    
    27   25   28 1    
    28   25   27 1    
    29   28   29 ar   
    30   28   33 ar   
    31   29   30 ar   
    32   29   32 1    
    33   30   31 1    
    34   30   37 ar   
    35   33   35 ar   
    36   33   34 1    
    37   35   37 ar   
    38   35   36 1    
    39   37   38 1    
    40   38   39 1    
    41   39   40 ar   
    42   39   44 ar   
    43   40   43 1    
    44   40   41 ar   
    45   41   42 1    
    46   41   48 ar   
    47   44   45 1    
    48   44   46 ar   
    49   46   47 1    
    50   46   48 ar   
    51   48   49 1    
    52   49   50 2    
    53   49   51 1    
    54   51   54 1    
    55   51   52 1    
    56   51   53 1    
    57   54   55 1    
    58   54   56 am   BACKBONE|DICT|INTERRES
    59   56   58 1    
    60   56   57 2    
    61   58   59 1    
    62   58   60 1    
    63   60   69 ar   
    64   60   61 ar   
    65   61   63 ar   
    66   61   62 1    
    67   63   65 ar   
    68   63   64 1    
    69   65   66 1    
    70   65   67 ar   
    71   67   68 1    
    72   67   69 ar   
    73   69   70 1    
    74   71   73 1    
    75   71   74 1    
    76   71   72 1    
    77   71   75 1    
    78   75   80 2    
    79   75   76 1    
    80   76   79 1    
    81   76   77 1    
    82   76   78 1    
@<TRIPOS>SUBSTRUCTURE
     1 UNK         1 GROUP             0       ****    0 ROOT    
@<TRIPOS>MOLECULE
Cpd2-1000
80   82    1
SMALL
USER_CHARGES


@<TRIPOS>ATOM
      1 C1         -5.3703   -0.1884   -2.3692 C.3       1 UNK         0.0000 
      2 H2         -5.7235   -0.4655   -1.3765 H         1 UNK         0.0000 
      3 H3         -6.2331    0.0087   -3.0126 H         1 UNK         0.0000 
      4 H4         -4.8111   -1.0258   -2.7987 H         1 UNK         0.0000 
      5 C5         -4.4899    1.0578   -2.3228 C.3       1 UNK         0.0000 
      6 C6         -4.0933    1.4695   -3.7368 C.3       1 UNK         0.0000 
      7 H7         -4.9838    1.7662   -4.2964 H         1 UNK         0.0000 
      8 H8         -3.4038    2.3196   -3.7163 H         1 UNK         0.0000 
      9 H9         -3.6186    0.6376   -4.2656 H         1 UNK         0.0000 
     10 C10        -5.1617    2.2219   -1.5999 C.3       1 UNK         0.0000 
     11 H11        -4.4838    3.0805   -1.5540 H         1 UNK         0.0000 
     12 H12        -6.0540    2.5236   -2.1564 H         1 UNK         0.0000 
     13 H13        -5.4557    1.9418   -0.5882 H         1 UNK         0.0000 
     14 O14        -3.2042    0.7528   -1.6886 O.3       1 UNK         0.0000 
     15 C15        -3.1787    0.3371   -0.3956 C.2       1 UNK         0.0000 
     16 O16        -4.1645    0.1386    0.2868 O.2       1 UNK         0.0000 
     17 N17        -1.8941    0.1818    0.0324 N.am      1 UNK         0.0000 
     18 H18        -1.1587    0.1820   -0.6773 H         1 UNK         0.0000 
     19 C19        -1.6800   -0.5530    1.2666 C.3       1 UNK         0.0000 
     20 C20        -0.4065   -0.1554    2.0212 C.2       1 UNK         0.0000 
     21 N21         0.4398    0.7436    1.4481 N.am      1 UNK         0.0000 
     22 H22         0.2075    1.1349    0.5420 H         1 UNK         0.0000 
     23 O23        -0.2013   -0.6434    3.1229 O.2       1 UNK         0.0000 
     24 H24        -2.4975   -0.2767    1.9385 H         1 UNK         0.0000 
     25 C25        -1.7582   -2.0885    1.0610 C.3       1 UNK         0.0000 
     26 H26        -2.7696   -2.3068    0.7014 H         1 UNK         0.0000 
     27 H27        -1.6330   -2.5626    2.0378 H         1 UNK         0.0000 
     28 C28        -0.7186   -2.5847    0.0887 C.ar      1 UNK         0.0000 
     29 C29        -0.8680   -2.3794   -1.2901 C.ar      1 UNK         0.0000 
     30 C30         0.1829   -2.6203   -2.1689 C.ar      1 UNK         0.0000 
     31 H31         0.0962   -2.3964   -3.2278 H         1 UNK         0.0000 
     32 H32        -1.8057   -1.9854   -1.6762 H         1 UNK         0.0000 
     33 C33         0.4626   -3.1780    0.5437 C.ar      1 UNK         0.0000 
     34 H34         0.5862   -3.3745    1.6060 H         1 UNK         0.0000 
     35 C35         1.5115   -3.4550   -0.3330 C.ar      1 UNK         0.0000 
     36 H36         2.4419   -3.8856    0.0239 H         1 UNK         0.0000 
     37 C37         1.3886   -3.1023   -1.6713 C.ar      1 UNK         0.0000 
     38 O38         2.5107   -3.1200   -2.5081 O.3       1 UNK         0.0000 
     39 C39         3.0768   -1.8526   -2.4969 C.ar      1 UNK         0.0000 
     40 C40         3.7242   -1.4048   -1.3475 C.ar      1 UNK         0.0000 
     41 C41         4.0243   -0.0575   -1.2142 C.ar      1 UNK         0.0000 
     42 H42         4.4366    0.3009   -0.2743 H         1 UNK         0.0000 
     43 H43         3.9065   -2.0921   -0.5300 H         1 UNK         0.0000 
     44 C44         2.9060   -1.0100   -3.5939 C.ar      1 UNK         0.0000 
     45 H45         2.4562   -1.4034   -4.5004 H         1 UNK         0.0000 
     46 C46         3.2499    0.3333   -3.4703 C.ar      1 UNK         0.0000 
     47 H47         3.0818    1.0306   -4.2868 H         1 UNK         0.0000 
     48 C48         3.7337    0.8314   -2.2545 C.ar      1 UNK         0.0000 
     49 C49         3.7746    2.3097   -2.0561 C.2       1 UNK         0.0000 
     50 O50         3.9327    3.0799   -2.9815 O.2       1 UNK         0.0000 
     51 C51         3.5367    2.8597   -0.6471 C.3       1 UNK         0.0000 
     52 H52         4.4803    2.8325   -0.0831 H         1 UNK         0.0000 
     53 H53         3.2632    3.9126   -0.7557 H         1 UNK         0.0000 
     54 N54         2.5261    2.1143    0.0897 N.am      1 UNK         0.0000 
     55 H55         2.0180    1.3657   -0.3797 H         1 UNK         0.0000 
     56 C56         2.4033    2.2979    1.4272 C.2       1 UNK         0.0000 
     57 O57         3.0056    3.1725    2.0317 O.2       1 UNK         0.0000 
     58 C58         1.5695    1.2653    2.2039 C.3       1 UNK         0.0000 
     59 H59         1.2065    1.7811    3.0986 H         1 UNK         0.0000 
     60 C60         2.5632    0.1927    2.6399 C.ar      1 UNK         0.0000 
     61 C61         3.3579    0.4209    3.7636 C.ar      1 UNK         0.0000 
     62 H62         3.2298    1.3391    4.3301 H         1 UNK         0.0000 
     63 C63         4.3129   -0.5165    4.1499 C.ar      1 UNK         0.0000 
     64 H64         4.9247   -0.3327    5.0276 H         1 UNK         0.0000 
     65 C65         4.4777   -1.6907    3.4164 C.ar      1 UNK         0.0000 
     66 H66         5.2140   -2.4275    3.7217 H         1 UNK         0.0000 
     67 C67         3.6862   -1.9150    2.2911 C.ar      1 UNK         0.0000 
     68 H68         3.8042   -2.8357    1.7250 H         1 UNK         0.0000 
     69 C69         2.7374   -0.9726    1.8984 C.ar      1 UNK         0.0000 
     70 H70         2.1140   -1.1471    1.0252 H         1 UNK         0.0000 
     71 C71        -0.8160    3.0211   -2.2073 C.3       1 UNK         0.0000 
     72 H72        -0.3761    3.5960   -1.3900 H         1 UNK         0.0000 
     73 H73        -1.7264    2.5122   -1.8820 H         1 UNK         0.0000 
     74 H74        -1.0031    3.6779   -3.0606 H         1 UNK         0.0000 
     75 S75         0.4121    1.7823   -2.6759 S.3       1 UNK         0.0000 
     76 C76        -0.5517    0.8754   -3.8990 C.3       1 UNK         0.0000 
     77 H77        -0.8234    1.5374   -4.7245 H         1 UNK         0.0000 
     78 H78        -1.4362    0.4788   -3.3936 H         1 UNK         0.0000 
     79 H79         0.0894    0.0674   -4.2559 H         1 UNK         0.0000 
     80 O80         0.4868    0.8152   -1.4825 O.2       1 UNK         0.0000 
@<TRIPOS>BOND
     1    1    3 1    
     2    1    4 1    
     3    1    2 1    
     4    1    5 1    
     5    5   14 1    
     6    5    6 1    
     7    5   10 1    
     8    6    9 1    
     9    6    7 1    
    10    6    8 1    
    11   10   11 1    
    12   10   12 1    
    13   10   13 1    
    14   14   15 1    
    15   15   17 am   BACKBONE|DICT|INTERRES
    16   15   16 2    
    17   17   19 1    
    18   17   18 1    
    19   19   24 1    
    20   19   25 1    
    21   19   20 1    
    22   20   23 2    
    23   20   21 am   BACKBONE|DICT|INTERRES
    24   21   22 1    
    25   21   58 1    
    26   25   27 1    
    27   25   26 1    
    28   25   28 1    
    29   28   29 ar   
    30   28   33 ar   
    31   29   30 ar   
    32   29   32 1    
    33   30   31 1    
    34   30   37 ar   
    35   33   35 ar   
    36   33   34 1    
    37   35   37 ar   
    38   35   36 1    
    39   37   38 1    
    40   38   39 1    
    41   39   40 ar   
    42   39   44 ar   
    43   40   43 1    
    44   40   41 ar   
    45   41   42 1    
    46   41   48 ar   
    47   44   45 1    
    48   44   46 ar   
    49   46   47 1    
    50   46   48 ar   
    51   48   49 1    
    52   49   50 2    
    53   49   51 1    
    54   51   54 1    
    55   51   52 1    
    56   51   53 1    
    57   54   55 1    
    58   54   56 am   BACKBONE|DICT|INTERRES
    59   56   58 1    
    60   56   57 2    
    61   58   59 1    
    62   58   60 1    
    63   60   69 ar   
    64   60   61 ar   
    65   61   63 ar   
    66   61   62 1    
    67   63   65 ar   
    68   63   64 1    
    69   65   66 1    
    70   65   67 ar   
    71   67   68 1    
    72   67   69 ar   
    73   69   70 1    
    74   71   73 1    
    75   71   75 1    
    76   71   72 1    
    77   71   74 1    
    78   75   80 2    
    79   75   76 1    
    80   76   78 1    
    81   76   79 1    
    82   76   77 1    
@<TRIPOS>SUBSTRUCTURE
     1 UNK         1 GROUP             0       ****    0 ROOT    
@<TRIPOS>MOLECULE
Cpd2-1500
80   82    1
SMALL
USER_CHARGES


@<TRIPOS>ATOM
      1 C1         -5.4775    0.0010   -2.2586 C.3       1 UNK         0.0000 
      2 H2         -4.9482   -0.8502   -2.6981 H         1 UNK         0.0000 
      3 H3         -5.8347   -0.2717   -1.2661 H         1 UNK         0.0000 
      4 H4         -6.3375    0.2332   -2.8933 H         1 UNK         0.0000 
      5 C5         -4.5582    1.2183   -2.2116 C.3       1 UNK         0.0000 
      6 C6         -4.1666    1.6312   -3.6259 C.3       1 UNK         0.0000 
      7 H7         -5.0582    1.9545   -4.1689 H         1 UNK         0.0000 
      8 H8         -3.4557    2.4628   -3.6078 H         1 UNK         0.0000 
      9 H9         -3.7200    0.7911   -4.1657 H         1 UNK         0.0000 
     10 C10        -5.1779    2.3957   -1.4659 C.3       1 UNK         0.0000 
     11 H11        -6.0660    2.7327   -2.0083 H         1 UNK         0.0000 
     12 H12        -5.4707    2.1146   -0.4538 H         1 UNK         0.0000 
     13 H13        -4.4691    3.2285   -1.4191 H         1 UNK         0.0000 
     14 O14        -3.2720    0.8625   -1.5976 O.3       1 UNK         0.0000 
     15 C15        -3.2251    0.4188   -0.3253 C.2       1 UNK         0.0000 
     16 O16        -4.1974    0.2418    0.3912 O.2       1 UNK         0.0000 
     17 N17        -1.9371    0.2003    0.0614 N.am      1 UNK         0.0000 
     18 H18        -1.2138    0.2344   -0.6606 H         1 UNK         0.0000 
     19 C19        -1.7031   -0.5503    1.2791 C.3       1 UNK         0.0000 
     20 C20        -0.4357   -0.1419    2.0350 C.2       1 UNK         0.0000 
     21 N21         0.4228    0.7318    1.4551 N.am      1 UNK         0.0000 
     22 H22         0.1717    1.1484    0.5626 H         1 UNK         0.0000 
     23 O23        -0.2447   -0.6125    3.1541 O.2       1 UNK         0.0000 
     24 H24        -2.5194   -0.2978    1.9614 H         1 UNK         0.0000 
     25 C25        -1.7596   -2.0846    1.0525 C.3       1 UNK         0.0000 
     26 H26        -2.7636   -2.3085    0.6771 H         1 UNK         0.0000 
     27 H27        -1.6450   -2.5756    2.0223 H         1 UNK         0.0000 
     28 C28        -0.7076   -2.5649    0.0854 C.ar      1 UNK         0.0000 
     29 C29        -0.8547   -2.3631   -1.2943 C.ar      1 UNK         0.0000 
     30 C30         0.1968   -2.6139   -2.1714 C.ar      1 UNK         0.0000 
     31 H31         0.1075   -2.3951   -3.2311 H         1 UNK         0.0000 
     32 H32        -1.7896   -1.9688   -1.6857 H         1 UNK         0.0000 
     33 C33         0.4748   -3.1519    0.5475 C.ar      1 UNK         0.0000 
     34 H34         0.5938   -3.3547    1.6091 H         1 UNK         0.0000 
     35 C35         1.5277   -3.4308   -0.3240 C.ar      1 UNK         0.0000 
     36 H36         2.4576   -3.8566    0.0396 H         1 UNK         0.0000 
     37 C37         1.4012   -3.0935   -1.6663 C.ar      1 UNK         0.0000 
     38 O38         2.5267   -3.1247   -2.5020 O.3       1 UNK         0.0000 
     39 C39         3.0846   -1.8504   -2.5090 C.ar      1 UNK         0.0000 
     40 C40         3.7734   -1.4076   -1.3804 C.ar      1 UNK         0.0000 
     41 C41         4.0580   -0.0568   -1.2455 C.ar      1 UNK         0.0000 
     42 H42         4.5088    0.3037   -0.3247 H         1 UNK         0.0000 
     43 H43         4.0035   -2.1046   -0.5823 H         1 UNK         0.0000 
     44 C44         2.8505   -1.0019   -3.5884 C.ar      1 UNK         0.0000 
     45 H45         2.3545   -1.3842   -4.4745 H         1 UNK         0.0000 
     46 C46         3.1831    0.3451   -3.4665 C.ar      1 UNK         0.0000 
     47 H47         2.9576    1.0410   -4.2695 H         1 UNK         0.0000 
     48 C48         3.7148    0.8352   -2.2679 C.ar      1 UNK         0.0000 
     49 C49         3.7698    2.3088   -2.0612 C.2       1 UNK         0.0000 
     50 O50         3.9857    3.0827   -2.9756 O.2       1 UNK         0.0000 
     51 C51         3.4900    2.8653   -0.6643 C.3       1 UNK         0.0000 
     52 H52         4.4374    2.9080   -0.1106 H         1 UNK         0.0000 
     53 H53         3.1449    3.8956   -0.7945 H         1 UNK         0.0000 
     54 N54         2.5395    2.0699    0.0974 N.am      1 UNK         0.0000 
     55 H55         1.9264    1.4204   -0.4011 H         1 UNK         0.0000 
     56 C56         2.4217    2.2516    1.4258 C.2       1 UNK         0.0000 
     57 O57         3.0608    3.1021    2.0421 O.2       1 UNK         0.0000 
     58 C58         1.5501    1.2590    2.2139 C.3       1 UNK         0.0000 
     59 H59         1.1807    1.8119    3.0837 H         1 UNK         0.0000 
     60 C60         2.5067    0.1758    2.7005 C.ar      1 UNK         0.0000 
     61 C61         3.1694    0.3391    3.9175 C.ar      1 UNK         0.0000 
     62 H62         2.9595    1.2115    4.5306 H         1 UNK         0.0000 
     63 C63         4.0907   -0.6144    4.3493 C.ar      1 UNK         0.0000 
     64 H64         4.5982   -0.4824    5.2998 H         1 UNK         0.0000 
     65 C65         4.3516   -1.7392    3.5664 C.ar      1 UNK         0.0000 
     66 H66         5.0619   -2.4871    3.9042 H         1 UNK         0.0000 
     67 C67         3.6891   -1.9015    2.3491 C.ar      1 UNK         0.0000 
     68 H68         3.8846   -2.7833    1.7450 H         1 UNK         0.0000 
     69 C69         2.7748   -0.9434    1.9139 C.ar      1 UNK         0.0000 
     70 H70         2.2471   -1.0719    0.9718 H         1 UNK         0.0000 
     71 C71        -0.8583    3.1440   -2.1469 C.3       1 UNK         0.0000 
     72 H72        -1.7661    2.6398   -1.8085 H         1 UNK         0.0000 
     73 H73        -1.0545    3.8007   -2.9972 H         1 UNK         0.0000 
     74 H74        -0.3997    3.7126   -1.3361 H         1 UNK         0.0000 
     75 S75         0.3453    1.8978   -2.6411 S.3       1 UNK         0.0000 
     76 C76        -0.6322    0.9916   -3.8487 C.3       1 UNK         0.0000 
     77 H77        -0.9043    1.6575   -4.6702 H         1 UNK         0.0000 
     78 H78        -1.5150    0.6027   -3.3357 H         1 UNK         0.0000 
     79 H79        -0.0031    0.1791   -4.2153 H         1 UNK         0.0000 
     80 O80         0.4288    0.9263   -1.4383 O.2       1 UNK         0.0000 
@<TRIPOS>BOND
     1    1    4 1    
     2    1    2 1    
     3    1    3 1    
     4    1    5 1    
     5    5   14 1    
     6    5    6 1    
     7    5   10 1    
     8    6    9 1    
     9    6    7 1    
    10    6    8 1    
    11   10   11 1    
    12   10   12 1    
    13   10   13 1    
    14   14   15 1    
    15   15   17 am   BACKBONE|DICT|INTERRES
    16   15   16 2    
    17   17   19 1    
    18   17   18 1    
    19   19   24 1    
    20   19   25 1    
    21   19   20 1    
    22   20   21 am   BACKBONE|DICT|INTERRES
    23   20   23 2    
    24   21   22 1    
    25   21   58 1    
    26   25   27 1    
    27   25   26 1    
    28   25   28 1    
    29   28   29 ar   
    30   28   33 ar   
    31   29   30 ar   
    32   29   32 1    
    33   30   31 1    
    34   30   37 ar   
    35   33   35 ar   
    36   33   34 1    
    37   35   37 ar   
    38   35   36 1    
    39   37   38 1    
    40   38   39 1    
    41   39   40 ar   
    42   39   44 ar   
    43   40   43 1    
    44   40   41 ar   
    45   41   42 1    
    46   41   48 ar   
    47   44   45 1    
    48   44   46 ar   
    49   46   47 1    
    50   46   48 ar   
    51   48   49 1    
    52   49   50 2    
    53   49   51 1    
    54   51   54 1    
    55   51   52 1    
    56   51   53 1    
    57   54   55 1    
    58   54   56 am   BACKBONE|DICT|INTERRES
    59   56   58 1    
    60   56   57 2    
    61   58   59 1    
    62   58   60 1    
    63   60   69 ar   
    64   60   61 ar   
    65   61   63 ar   
    66   61   62 1    
    67   63   65 ar   
    68   63   64 1    
    69   65   66 1    
    70   65   67 ar   
    71   67   68 1    
    72   67   69 ar   
    73   69   70 1    
    74   71   72 1    
    75   71   75 1    
    76   71   73 1    
    77   71   74 1    
    78   75   80 2    
    79   75   76 1    
    80   76   78 1    
    81   76   79 1    
    82   76   77 1    
@<TRIPOS>SUBSTRUCTURE
     1 UNK         1 GROUP             0       ****    0 ROOT    
@<TRIPOS>MOLECULE
Cpd2-2000
80   82    1
SMALL
USER_CHARGES


@<TRIPOS>ATOM
      1 C1         -5.5605   -0.4834   -2.1781 C.3       1 UNK         0.0000 
      2 H2         -5.0184   -1.3740   -2.5115 H         1 UNK         0.0000 
      3 H3         -5.9269   -0.6450   -1.1645 H         1 UNK         0.0000 
      4 H4         -6.4152   -0.3349   -2.8442 H         1 UNK         0.0000 
      5 C5         -4.6539    0.7412   -2.2636 C.3       1 UNK         0.0000 
      6 C6         -4.2514    0.9998   -3.7108 C.3       1 UNK         0.0000 
      7 H7         -5.1399    1.2406   -4.3003 H         1 UNK         0.0000 
      8 H8         -3.5525    1.8381   -3.7704 H         1 UNK         0.0000 
      9 H9         -3.7768    0.1124   -4.1392 H         1 UNK         0.0000 
     10 C10        -5.2882    1.9839   -1.6486 C.3       1 UNK         0.0000 
     11 H11        -6.2101    2.2216   -2.1870 H         1 UNK         0.0000 
     12 H12        -5.5280    1.8253   -0.5957 H         1 UNK         0.0000 
     13 H13        -4.6109    2.8391   -1.7425 H         1 UNK         0.0000 
     14 O14        -3.3685    0.4747   -1.6118 O.3       1 UNK         0.0000 
     15 C15        -3.3077    0.0976   -0.3228 C.2       1 UNK         0.0000 
     16 O16        -4.2597   -0.0136    0.4342 O.2       1 UNK         0.0000 
     17 N17        -2.0110   -0.1074    0.0350 N.am      1 UNK         0.0000 
     18 H18        -1.3306   -0.0867   -0.7195 H         1 UNK         0.0000 
     19 C19        -1.6878   -0.6960    1.3137 C.3       1 UNK         0.0000 
     20 C20        -0.3958   -0.1479    1.9294 C.2       1 UNK         0.0000 
     21 N21         0.3480    0.7431    1.2244 N.am      1 UNK         0.0000 
     22 H22        -0.0363    1.1385    0.3671 H         1 UNK         0.0000 
     23 O23        -0.0709   -0.5340    3.0492 O.2       1 UNK         0.0000 
     24 H24        -2.4822   -0.4007    2.0054 H         1 UNK         0.0000 
     25 C25        -1.6611   -2.2473    1.2608 C.3       1 UNK         0.0000 
     26 H26        -2.6711   -2.5770    0.9987 H         1 UNK         0.0000 
     27 H27        -1.4259   -2.6186    2.2612 H         1 UNK         0.0000 
     28 C28        -0.6560   -2.7287    0.2481 C.ar      1 UNK         0.0000 
     29 C29        -1.0038   -2.8591   -1.1022 C.ar      1 UNK         0.0000 
     30 C30        -0.0287   -3.0423   -2.0842 C.ar      1 UNK         0.0000 
     31 H31        -0.2884   -3.0688   -3.1378 H         1 UNK         0.0000 
     32 H32        -2.0451   -2.7599   -1.3991 H         1 UNK         0.0000 
     33 C33         0.6820   -2.9132    0.6154 C.ar      1 UNK         0.0000 
     34 H34         0.9690   -2.8435    1.6622 H         1 UNK         0.0000 
     35 C35         1.6611   -3.1095   -0.3523 C.ar      1 UNK         0.0000 
     36 H36         2.7081   -3.1906   -0.0790 H         1 UNK         0.0000 
     37 C37         1.3041   -3.1000   -1.6963 C.ar      1 UNK         0.0000 
     38 O38         2.3218   -3.0090   -2.6537 O.3       1 UNK         0.0000 
     39 C39         2.8483   -1.7242   -2.6147 C.ar      1 UNK         0.0000 
     40 C40         4.1700   -1.5330   -2.2199 C.ar      1 UNK         0.0000 
     41 C41         4.6233   -0.2354   -1.9821 C.ar      1 UNK         0.0000 
     42 H42         5.6265   -0.0696   -1.6005 H         1 UNK         0.0000 
     43 H43         4.8032   -2.3949   -2.0345 H         1 UNK         0.0000 
     44 C44         2.0153   -0.6371   -2.8893 C.ar      1 UNK         0.0000 
     45 H45         0.9997   -0.8027   -3.2318 H         1 UNK         0.0000 
     46 C46         2.4704    0.6461   -2.6361 C.ar      1 UNK         0.0000 
     47 H47         1.7881    1.4743   -2.8016 H         1 UNK         0.0000 
     48 C48         3.7616    0.8555   -2.1341 C.ar      1 UNK         0.0000 
     49 C49         4.1725    2.1973   -1.6294 C.2       1 UNK         0.0000 
     50 O50         5.3385    2.5367   -1.5535 O.2       1 UNK         0.0000 
     51 C51         3.0568    3.1329   -1.1346 C.3       1 UNK         0.0000 
     52 H52         3.5230    3.9519   -0.5871 H         1 UNK         0.0000 
     53 H53         2.5275    3.5468   -1.9990 H         1 UNK         0.0000 
     54 N54         2.1127    2.4390   -0.2745 N.am      1 UNK         0.0000 
     55 H55         1.3219    1.9734   -0.7187 H         1 UNK         0.0000 
     56 C56         2.2923    2.3839    1.0621 C.2       1 UNK         0.0000 
     57 O57         3.1292    3.0610    1.6540 O.2       1 UNK         0.0000 
     58 C58         1.5231    1.3239    1.8710 C.3       1 UNK         0.0000 
     59 H59         1.2175    1.8102    2.8033 H         1 UNK         0.0000 
     60 C60         2.5838    0.2763    2.2011 C.ar      1 UNK         0.0000 
     61 C61         3.0935    0.1762    3.4957 C.ar      1 UNK         0.0000 
     62 H62         2.6717    0.7920    4.2853 H         1 UNK         0.0000 
     63 C63         4.1284   -0.7132    3.7782 C.ar      1 UNK         0.0000 
     64 H64         4.5134   -0.7905    4.7902 H         1 UNK         0.0000 
     65 C65         4.6697   -1.5004    2.7606 C.ar      1 UNK         0.0000 
     66 H66         5.4814   -2.1881    2.9755 H         1 UNK         0.0000 
     67 C67         4.1644   -1.3980    1.4649 C.ar      1 UNK         0.0000 
     68 H68         4.5922   -1.9991    0.6672 H         1 UNK         0.0000 
     69 C69         3.1197   -0.5166    1.1859 C.ar      1 UNK         0.0000 
     70 H70         2.7196   -0.4448    0.1751 H         1 UNK         0.0000 
     71 C71        -0.3296    4.2906   -2.1568 C.3       1 UNK         0.0000 
     72 H72        -0.9861    5.1519   -2.2961 H         1 UNK         0.0000 
     73 H73         0.2274    4.1016   -3.0754 H         1 UNK         0.0000 
     74 H74         0.3430    4.4468   -1.3098 H         1 UNK         0.0000 
     75 S75        -1.3509    2.8370   -1.8447 S.3       1 UNK         0.0000 
     76 C76        -2.0156    3.3557   -0.2480 C.3       1 UNK         0.0000 
     77 H77        -2.6433    2.5502    0.1340 H         1 UNK         0.0000 
     78 H78        -2.6155    4.2556   -0.3986 H         1 UNK         0.0000 
     79 H79        -1.1854    3.5525    0.4349 H         1 UNK         0.0000 
     80 O80        -0.3458    1.7045   -1.5269 O.2       1 UNK         0.0000 
@<TRIPOS>BOND
     1    1    4 1    
     2    1    2 1    
     3    1    3 1    
     4    1    5 1    
     5    5    6 1    
     6    5   10 1    
     7    5   14 1    
     8    6    7 1    
     9    6    9 1    
    10    6    8 1    
    11   10   11 1    
    12   10   12 1    
    13   10   13 1    
    14   14   15 1    
    15   15   17 am   BACKBONE|DICT|INTERRES
    16   15   16 2    
    17   17   18 1    
    18   17   19 1    
    19   19   24 1    
    20   19   25 1    
    21   19   20 1    
    22   20   21 am   BACKBONE|DICT|INTERRES
    23   20   23 2    
    24   21   22 1    
    25   21   58 1    
    26   25   26 1    
    27   25   28 1    
    28   25   27 1    
    29   28   29 ar   
    30   28   33 ar   
    31   29   32 1    
    32   29   30 ar   
    33   30   31 1    
    34   30   37 ar   
    35   33   35 ar   
    36   33   34 1    
    37   35   37 ar   
    38   35   36 1    
    39   37   38 1    
    40   38   39 1    
    41   39   40 ar   
    42   39   44 ar   
    43   40   43 1    
    44   40   41 ar   
    45   41   42 1    
    46   41   48 ar   
    47   44   45 1    
    48   44   46 ar   
    49   46   47 1    
    50   46   48 ar   
    51   48   49 1    
    52   49   50 2    
    53   49   51 1    
    54   51   53 1    
    55   51   52 1    
    56   51   54 1    
    57   54   55 1    
    58   54   56 am   BACKBONE|DICT|INTERRES
    59   56   57 2    
    60   56   58 1    
    61   58   59 1    
    62   58   60 1    
    63   60   69 ar   
    64   60   61 ar   
    65   61   63 ar   
    66   61   62 1    
    67   63   65 ar   
    68   63   64 1    
    69   65   66 1    
    70   65   67 ar   
    71   67   68 1    
    72   67   69 ar   
    73   69   70 1    
    74   71   75 1    
    75   71   73 1    
    76   71   72 1    
    77   71   74 1    
    78   75   80 2    
    79   75   76 1    
    80   76   77 1    
    81   76   78 1    
    82   76   79 1    
@<TRIPOS>SUBSTRUCTURE
     1 UNK         1 GROUP             0       ****    0 ROOT    
@<TRIPOS>MOLECULE
Cpd2-2500
80   82    1
SMALL
USER_CHARGES


@<TRIPOS>ATOM
      1 C1         -5.5083    0.0533   -2.2865 C.3       1 UNK         0.0000 
      2 H2         -6.3667    0.3389   -2.9015 H         1 UNK         0.0000 
      3 H3         -4.9986   -0.7821   -2.7766 H         1 UNK         0.0000 
      4 H4         -5.8657   -0.2681   -1.3086 H         1 UNK         0.0000 
      5 C5         -4.5629    1.2459   -2.1733 C.3       1 UNK         0.0000 
      6 C6         -4.1485    1.7222   -3.5601 C.3       1 UNK         0.0000 
      7 H7         -3.7127    0.9016   -4.1366 H         1 UNK         0.0000 
      8 H8         -5.0262    2.0912   -4.0966 H         1 UNK         0.0000 
      9 H9         -3.4214    2.5365   -3.4851 H         1 UNK         0.0000 
     10 C10        -5.1641    2.3996   -1.3762 C.3       1 UNK         0.0000 
     11 H11        -5.4838    2.0757   -0.3853 H         1 UNK         0.0000 
     12 H12        -4.4321    3.2068   -1.2749 H         1 UNK         0.0000 
     13 H13        -6.0322    2.7895   -1.9153 H         1 UNK         0.0000 
     14 O14        -3.2921    0.8309   -1.5691 O.3       1 UNK         0.0000 
     15 C15        -3.2606    0.3719   -0.3040 C.2       1 UNK         0.0000 
     16 O16        -4.2392    0.1641    0.3966 O.2       1 UNK         0.0000 
     17 N17        -1.9758    0.1720    0.0984 N.am      1 UNK         0.0000 
     18 H18        -1.2462    0.2481   -0.6103 H         1 UNK         0.0000 
     19 C19        -1.7239   -0.5784    1.3088 C.3       1 UNK         0.0000 
     20 C20        -0.4476   -0.1506    2.0373 C.2       1 UNK         0.0000 
     21 N21         0.4025    0.7153    1.4263 N.am      1 UNK         0.0000 
     22 H22         0.1140    1.1588    0.5566 H         1 UNK         0.0000 
     23 O23        -0.2340   -0.6055    3.1580 O.2       1 UNK         0.0000 
     24 H24        -2.5336   -0.3387    2.0035 H         1 UNK         0.0000 
     25 C25        -1.7601   -2.1133    1.0784 C.3       1 UNK         0.0000 
     26 H26        -2.7649   -2.3492    0.7121 H         1 UNK         0.0000 
     27 H27        -1.6299   -2.6067    2.0450 H         1 UNK         0.0000 
     28 C28        -0.7108   -2.5770    0.1001 C.ar      1 UNK         0.0000 
     29 C29        -0.8489   -2.3234   -1.2728 C.ar      1 UNK         0.0000 
     30 C30         0.2019   -2.5583   -2.1543 C.ar      1 UNK         0.0000 
     31 H31         0.1214   -2.2964   -3.2051 H         1 UNK         0.0000 
     32 H32        -1.7771   -1.9052   -1.6542 H         1 UNK         0.0000 
     33 C33         0.4585   -3.2027    0.5436 C.ar      1 UNK         0.0000 
     34 H34         0.5707   -3.4452    1.5974 H         1 UNK         0.0000 
     35 C35         1.5095   -3.4713   -0.3347 C.ar      1 UNK         0.0000 
     36 H36         2.4305   -3.9265    0.0159 H         1 UNK         0.0000 
     37 C37         1.3941   -3.0825   -1.6635 C.ar      1 UNK         0.0000 
     38 O38         2.5190   -3.1077   -2.4995 O.3       1 UNK         0.0000 
     39 C39         3.0757   -1.8334   -2.4992 C.ar      1 UNK         0.0000 
     40 C40         3.7399   -1.3884   -1.3564 C.ar      1 UNK         0.0000 
     41 C41         4.0277   -0.0395   -1.2199 C.ar      1 UNK         0.0000 
     42 H42         4.4605    0.3223   -0.2913 H         1 UNK         0.0000 
     43 H43         3.9476   -2.0840   -0.5511 H         1 UNK         0.0000 
     44 C44         2.8663   -0.9891   -3.5856 C.ar      1 UNK         0.0000 
     45 H45         2.3829   -1.3704   -4.4791 H         1 UNK         0.0000 
     46 C46         3.2084    0.3558   -3.4630 C.ar      1 UNK         0.0000 
     47 H47         3.0162    1.0435   -4.2821 H         1 UNK         0.0000 
     48 C48         3.7192    0.8488   -2.2573 C.ar      1 UNK         0.0000 
     49 C49         3.7996    2.3215   -2.0618 C.2       1 UNK         0.0000 
     50 O50         4.0499    3.0825   -2.9792 O.2       1 UNK         0.0000 
     51 C51         3.4904    2.8932   -0.6786 C.3       1 UNK         0.0000 
     52 H52         4.4158    2.9004   -0.0887 H         1 UNK         0.0000 
     53 H53         3.1936    3.9376   -0.8192 H         1 UNK         0.0000 
     54 N54         2.4914    2.1273    0.0493 N.am      1 UNK         0.0000 
     55 H55         1.7945    1.6058   -0.4846 H         1 UNK         0.0000 
     56 C56         2.4244    2.2305    1.3917 C.2       1 UNK         0.0000 
     57 O57         3.1379    3.0017    2.0302 O.2       1 UNK         0.0000 
     58 C58         1.5357    1.2474    2.1732 C.3       1 UNK         0.0000 
     59 H59         1.1720    1.8045    3.0433 H         1 UNK         0.0000 
     60 C60         2.4870    0.1599    2.6639 C.ar      1 UNK         0.0000 
     61 C61         3.1601    0.3269    3.8749 C.ar      1 UNK         0.0000 
     62 H62         2.9647    1.2074    4.4806 H         1 UNK         0.0000 
     63 C63         4.0731   -0.6331    4.3092 C.ar      1 UNK         0.0000 
     64 H64         4.5883   -0.4981    5.2551 H         1 UNK         0.0000 
     65 C65         4.3159   -1.7685    3.5354 C.ar      1 UNK         0.0000 
     66 H66         5.0199   -2.5213    3.8754 H         1 UNK         0.0000 
     67 C67         3.6425   -1.9345    2.3250 C.ar      1 UNK         0.0000 
     68 H68         3.8221   -2.8246    1.7278 H         1 UNK         0.0000 
     69 C69         2.7359   -0.9698    1.8873 C.ar      1 UNK         0.0000 
     70 H70         2.1989   -1.1009    0.9514 H         1 UNK         0.0000 
     71 C71        -0.7344    1.1055   -3.9194 C.3       1 UNK         0.0000 
     72 H72        -1.1279    1.6958   -4.7493 H         1 UNK         0.0000 
     73 H73        -1.4413    0.3212   -3.6440 H         1 UNK         0.0000 
     74 H74         0.2429    0.6793   -4.1587 H         1 UNK         0.0000 
     75 S75        -0.5436    2.1530   -2.4687 S.3       1 UNK         0.0000 
     76 C76         0.6993    3.2834   -3.1132 C.3       1 UNK         0.0000 
     77 H77         0.2330    3.9059   -3.8795 H         1 UNK         0.0000 
     78 H78         1.5308    2.7143   -3.5307 H         1 UNK         0.0000 
     79 H79         1.0290    3.9101   -2.2828 H         1 UNK         0.0000 
     80 O80         0.2105    1.2375   -1.4714 O.2       1 UNK         0.0000 
@<TRIPOS>BOND
     1    1    3 1    
     2    1    2 1    
     3    1    4 1    
     4    1    5 1    
     5    5   14 1    
     6    5    6 1    
     7    5   10 1    
     8    6    7 1    
     9    6    8 1    
    10    6    9 1    
    11   10   11 1    
    12   10   12 1    
    13   10   13 1    
    14   14   15 1    
    15   15   17 am   BACKBONE|DICT|INTERRES
    16   15   16 2    
    17   17   19 1    
    18   17   18 1    
    19   19   24 1    
    20   19   25 1    
    21   19   20 1    
    22   20   21 am   BACKBONE|DICT|INTERRES
    23   20   23 2    
    24   21   22 1    
    25   21   58 1    
    26   25   26 1    
    27   25   28 1    
    28   25   27 1    
    29   28   29 ar   
    30   28   33 ar   
    31   29   30 ar   
    32   29   32 1    
    33   30   31 1    
    34   30   37 ar   
    35   33   35 ar   
    36   33   34 1    
    37   35   37 ar   
    38   35   36 1    
    39   37   38 1    
    40   38   39 1    
    41   39   40 ar   
    42   39   44 ar   
    43   40   43 1    
    44   40   41 ar   
    45   41   42 1    
    46   41   48 ar   
    47   44   45 1    
    48   44   46 ar   
    49   46   47 1    
    50   46   48 ar   
    51   48   49 1    
    52   49   50 2    
    53   49   51 1    
    54   51   54 1    
    55   51   52 1    
    56   51   53 1    
    57   54   55 1    
    58   54   56 am   BACKBONE|DICT|INTERRES
    59   56   58 1    
    60   56   57 2    
    61   58   59 1    
    62   58   60 1    
    63   60   69 ar   
    64   60   61 ar   
    65   61   63 ar   
    66   61   62 1    
    67   63   65 ar   
    68   63   64 1    
    69   65   66 1    
    70   65   67 ar   
    71   67   68 1    
    72   67   69 ar   
    73   69   70 1    
    74   71   73 1    
    75   71   74 1    
    76   71   72 1    
    77   71   75 1    
    78   75   80 2    
    79   75   76 1    
    80   76   78 1    
    81   76   77 1    
    82   76   79 1    
@<TRIPOS>SUBSTRUCTURE
     1 UNK         1 GROUP             0       ****    0 ROOT    
@<TRIPOS>MOLECULE
Cpd2-3000-MEC
80   82    1
SMALL
USER_CHARGES


@<TRIPOS>ATOM
      1 C1         -5.0387    3.0562    0.5902 C.3       1 UNK         0.0000 
      2 H2         -5.5561    4.0088    0.4439 H         1 UNK         0.0000 
      3 H3         -5.7632    2.2465    0.4552 H         1 UNK         0.0000 
      4 H4         -4.6469    3.0214    1.6075 H         1 UNK         0.0000 
      5 C5         -3.9205    2.9309   -0.4398 C.3       1 UNK         0.0000 
      6 C6         -4.4855    2.9965   -1.8536 C.3       1 UNK         0.0000 
      7 H7         -4.9464    3.9733   -2.0215 H         1 UNK         0.0000 
      8 H8         -3.6910    2.8513   -2.5906 H         1 UNK         0.0000 
      9 H9         -5.2464    2.2251   -1.9984 H         1 UNK         0.0000 
     10 C10        -2.8330    3.9861   -0.2577 C.3       1 UNK         0.0000 
     11 H11        -2.4398    3.9856    0.7589 H         1 UNK         0.0000 
     12 H12        -2.0137    3.8055   -0.9601 H         1 UNK         0.0000 
     13 H13        -3.2572    4.9714   -0.4721 H         1 UNK         0.0000 
     14 O14        -3.3437    1.5873   -0.3832 O.3       1 UNK         0.0000 
     15 C15        -2.7118    1.1546    0.7190 C.2       1 UNK         0.0000 
     16 O16        -2.5368    1.7980    1.7433 O.2       1 UNK         0.0000 
     17 N17        -2.2473   -0.1163    0.5365 N.am      1 UNK         0.0000 
     18 H18        -2.7100   -0.6592   -0.1982 H         1 UNK         0.0000 
     19 C19        -1.7477   -0.8314    1.6968 C.3       1 UNK         0.0000 
     20 C20        -0.3968   -0.2853    2.1801 C.2       1 UNK         0.0000 
     21 N21         0.3418    0.3990    1.2843 N.am      1 UNK         0.0000 
     22 H22        -0.0746    0.6402    0.3911 H         1 UNK         0.0000 
     23 O23        -0.0291   -0.4935    3.3358 O.2       1 UNK         0.0000 
     24 H24        -2.4203   -0.6805    2.5499 H         1 UNK         0.0000 
     25 C25        -1.6770   -2.3495    1.4133 C.3       1 UNK         0.0000 
     26 H26        -2.6842   -2.6798    1.1400 H         1 UNK         0.0000 
     27 H27        -1.4026   -2.8402    2.3513 H         1 UNK         0.0000 
     28 C28        -0.6905   -2.6992    0.3262 C.ar      1 UNK         0.0000 
     29 C29        -1.0692   -2.6963   -1.0215 C.ar      1 UNK         0.0000 
     30 C30        -0.1137   -2.7983   -2.0341 C.ar      1 UNK         0.0000 
     31 H31        -0.3920   -2.7254   -3.0808 H         1 UNK         0.0000 
     32 H32        -2.1168   -2.5627   -1.2809 H         1 UNK         0.0000 
     33 C33         0.6507   -2.9345    0.6477 C.ar      1 UNK         0.0000 
     34 H34         0.9575   -2.9746    1.6907 H         1 UNK         0.0000 
     35 C35         1.6096   -3.0526   -0.3525 C.ar      1 UNK         0.0000 
     36 H36         2.6602   -3.1815   -0.1105 H         1 UNK         0.0000 
     37 C37         1.2250   -2.9130   -1.6819 C.ar      1 UNK         0.0000 
     38 O38         2.2227   -2.7790   -2.6525 O.3       1 UNK         0.0000 
     39 C39         2.8184   -1.5317   -2.5523 C.ar      1 UNK         0.0000 
     40 C40         4.1964   -1.4497   -2.3618 C.ar      1 UNK         0.0000 
     41 C41         4.7740   -0.2039   -2.1205 C.ar      1 UNK         0.0000 
     42 H42         5.8375   -0.1271   -1.9153 H         1 UNK         0.0000 
     43 H43         4.7890   -2.3585   -2.3475 H         1 UNK         0.0000 
     44 C44         2.0295   -0.3788   -2.5899 C.ar      1 UNK         0.0000 
     45 H45         0.9627   -0.4561   -2.7690 H         1 UNK         0.0000 
     46 C46         2.6095    0.8527   -2.3275 C.ar      1 UNK         0.0000 
     47 H47         1.9794    1.7351   -2.3070 H         1 UNK         0.0000 
     48 C48         3.9798    0.9464   -2.0564 C.ar      1 UNK         0.0000 
     49 C49         4.5824    2.2325   -1.6023 C.2       1 UNK         0.0000 
     50 O50         5.7451    2.5178   -1.8198 O.2       1 UNK         0.0000 
     51 C51         3.7045    3.1615   -0.7479 C.3       1 UNK         0.0000 
     52 H52         4.3254    3.9954   -0.4165 H         1 UNK         0.0000 
     53 H53         2.8660    3.5512   -1.3309 H         1 UNK         0.0000 
     54 N54         3.1654    2.4404    0.3914 N.am      1 UNK         0.0000 
     55 H55         3.8266    2.0393    1.0452 H         1 UNK         0.0000 
     56 C56         1.8717    2.0719    0.5020 C.2       1 UNK         0.0000 
     57 O57         0.9898    2.4493   -0.2644 O.2       1 UNK         0.0000 
     58 C58         1.5344    1.1279    1.6788 C.3       1 UNK         0.0000 
     59 H59         1.2904    1.7678    2.5394 H         1 UNK         0.0000 
     60 C60         2.6931    0.2277    2.0668 C.ar      1 UNK         0.0000 
     61 C61         3.2225    0.2664    3.3565 C.ar      1 UNK         0.0000 
     62 H62         2.7725    0.9178    4.1009 H         1 UNK         0.0000 
     63 C63         4.3139   -0.5358    3.6946 C.ar      1 UNK         0.0000 
     64 H64         4.7165   -0.5030    4.7019 H         1 UNK         0.0000 
     65 C65         4.8841   -1.3766    2.7398 C.ar      1 UNK         0.0000 
     66 H66         5.7355   -1.9975    2.9998 H         1 UNK         0.0000 
     67 C67         4.3603   -1.4144    1.4454 C.ar      1 UNK         0.0000 
     68 H68         4.8088   -2.0579    0.6933 H         1 UNK         0.0000 
     69 C69         3.2692   -0.6162    1.1130 C.ar      1 UNK         0.0000 
     70 H70         2.8627   -0.6364    0.1037 H         1 UNK         0.0000 
     71 C71        -6.1998   -2.5279    0.5230 C.3       1 UNK         0.0000 
     72 H72        -7.1490   -2.2174    0.9640 H         1 UNK         0.0000 
     73 H73        -5.5363   -2.9092    1.2996 H         1 UNK         0.0000 
     74 H74        -6.3519   -3.2786   -0.2551 H         1 UNK         0.0000 
     75 S75        -5.3924   -1.0907   -0.2077 S.3       1 UNK         0.0000 
     76 C76        -6.6147   -0.7400   -1.4852 C.3       1 UNK         0.0000 
     77 H77        -6.7629   -1.6401   -2.0852 H         1 UNK         0.0000 
     78 H78        -6.2122    0.0648   -2.1000 H         1 UNK         0.0000 
     79 H79        -7.5451   -0.4214   -1.0114 H         1 UNK         0.0000 
     80 O80        -4.1721   -1.6500   -0.9591 O.2       1 UNK         0.0000 
@<TRIPOS>BOND
     1    1    4 1    
     2    1    2 1    
     3    1    3 1    
     4    1    5 1    
     5    5   14 1    
     6    5   10 1    
     7    5    6 1    
     8    6    7 1    
     9    6    8 1    
    10    6    9 1    
    11   10   11 1    
    12   10   12 1    
    13   10   13 1    
    14   14   15 1    
    15   15   16 2    
    16   15   17 am   BACKBONE|DICT|INTERRES
    17   17   19 1    
    18   17   18 1    
    19   19   20 1    
    20   19   24 1    
    21   19   25 1    
    22   20   23 2    
    23   20   21 am   BACKBONE|DICT|INTERRES
    24   21   58 1    
    25   21   22 1    
    26   25   27 1    
    27   25   26 1    
    28   25   28 1    
    29   28   33 ar   
    30   28   29 ar   
    31   29   30 ar   
    32   29   32 1    
    33   30   37 ar   
    34   30   31 1    
    35   33   34 1    
    36   33   35 ar   
    37   35   36 1    
    38   35   37 ar   
    39   37   38 1    
    40   38   39 1    
    41   39   40 ar   
    42   39   44 ar   
    43   40   43 1    
    44   40   41 ar   
    45   41   48 ar   
    46   41   42 1    
    47   44   46 ar   
    48   44   45 1    
    49   46   47 1    
    50   46   48 ar   
    51   48   49 1    
    52   49   51 1    
    53   49   50 2    
    54   51   52 1    
    55   51   54 1    
    56   51   53 1    
    57   54   56 am   BACKBONE|DICT|INTERRES
    58   54   55 1    
    59   56   58 1    
    60   56   57 2    
    61   58   60 1    
    62   58   59 1    
    63   60   61 ar   
    64   60   69 ar   
    65   61   63 ar   
    66   61   62 1    
    67   63   64 1    
    68   63   65 ar   
    69   65   66 1    
    70   65   67 ar   
    71   67   68 1    
    72   67   69 ar   
    73   69   70 1    
    74   71   72 1    
    75   71   73 1    
    76   71   74 1    
    77   71   75 1    
    78   75   76 1    
    79   75   80 2    
    80   76   79 1    
    81   76   77 1    
    82   76   78 1    
@<TRIPOS>SUBSTRUCTURE
     1 UNK         1 GROUP             0       ****    0 ROOT    
@<TRIPOS>MOLECULE
Cpd2-3500-MRC
80   82    1
SMALL
USER_CHARGES


@<TRIPOS>ATOM
      1 C1         -5.4769   -0.0011   -2.2597 C.3       1 UNK         0.0000 
      2 H2         -6.3366    0.2305   -2.8952 H         1 UNK         0.0000 
      3 H3         -4.9471   -0.8525   -2.6984 H         1 UNK         0.0000 
      4 H4         -5.8347   -0.2734   -1.2673 H         1 UNK         0.0000 
      5 C5         -4.5580    1.2164   -2.2129 C.3       1 UNK         0.0000 
      6 C6         -4.1660    1.6290   -3.6271 C.3       1 UNK         0.0000 
      7 H7         -5.0576    1.9517   -4.1705 H         1 UNK         0.0000 
      8 H8         -3.4556    2.4610   -3.6090 H         1 UNK         0.0000 
      9 H9         -3.7188    0.7891   -4.1665 H         1 UNK         0.0000 
     10 C10        -5.1783    2.3938   -1.4676 C.3       1 UNK         0.0000 
     11 H11        -6.0664    2.7304   -2.0102 H         1 UNK         0.0000 
     12 H12        -5.4711    2.1130   -0.4556 H         1 UNK         0.0000 
     13 H13        -4.4698    3.2269   -1.4210 H         1 UNK         0.0000 
     14 O14        -3.2718    0.8612   -1.5983 O.3       1 UNK         0.0000 
     15 C15        -3.2252    0.4177   -0.3260 C.2       1 UNK         0.0000 
     16 O16        -4.1976    0.2402    0.3902 O.2       1 UNK         0.0000 
     17 N17        -1.9372    0.2002    0.0613 N.am      1 UNK         0.0000 
     18 H18        -1.2136    0.2347   -0.6606 H         1 UNK         0.0000 
     19 C19        -1.7032   -0.5503    1.2791 C.3       1 UNK         0.0000 
     20 C20        -0.4358   -0.1418    2.0350 C.2       1 UNK         0.0000 
     21 N21         0.4229    0.7317    1.4550 N.am      1 UNK         0.0000 
     22 H22         0.1720    1.1480    0.5623 H         1 UNK         0.0000 
     23 O23        -0.2451   -0.6121    3.1542 O.2       1 UNK         0.0000 
     24 H24        -2.5194   -0.2979    1.9612 H         1 UNK         0.0000 
     25 C25        -1.7594   -2.0847    1.0525 C.3       1 UNK         0.0000 
     26 H26        -2.7636   -2.3085    0.6772 H         1 UNK         0.0000 
     27 H27        -1.6449   -2.5756    2.0224 H         1 UNK         0.0000 
     28 C28        -0.7075   -2.5650    0.0854 C.ar      1 UNK         0.0000 
     29 C29        -0.8548   -2.3631   -1.2943 C.ar      1 UNK         0.0000 
     30 C30         0.1967   -2.6141   -2.1714 C.ar      1 UNK         0.0000 
     31 H31         0.1073   -2.3954   -3.2311 H         1 UNK         0.0000 
     32 H32        -1.7897   -1.9690   -1.6856 H         1 UNK         0.0000 
     33 C33         0.4749   -3.1518    0.5476 C.ar      1 UNK         0.0000 
     34 H34         0.5940   -3.3545    1.6091 H         1 UNK         0.0000 
     35 C35         1.5279   -3.4306   -0.3240 C.ar      1 UNK         0.0000 
     36 H36         2.4578   -3.8563    0.0396 H         1 UNK         0.0000 
     37 C37         1.4011   -3.0934   -1.6663 C.ar      1 UNK         0.0000 
     38 O38         2.5266   -3.1246   -2.5021 O.3       1 UNK         0.0000 
     39 C39         3.0847   -1.8503   -2.5091 C.ar      1 UNK         0.0000 
     40 C40         3.7733   -1.4077   -1.3804 C.ar      1 UNK         0.0000 
     41 C41         4.0580   -0.0567   -1.2455 C.ar      1 UNK         0.0000 
     42 H42         4.5087    0.3038   -0.3249 H         1 UNK         0.0000 
     43 H43         4.0036   -2.1044   -0.5823 H         1 UNK         0.0000 
     44 C44         2.8505   -1.0019   -3.5884 C.ar      1 UNK         0.0000 
     45 H45         2.3545   -1.3842   -4.4747 H         1 UNK         0.0000 
     46 C46         3.1831    0.3451   -3.4666 C.ar      1 UNK         0.0000 
     47 H47         2.9576    1.0410   -4.2697 H         1 UNK         0.0000 
     48 C48         3.7147    0.8353   -2.2680 C.ar      1 UNK         0.0000 
     49 C49         3.7698    2.3090   -2.0612 C.2       1 UNK         0.0000 
     50 O50         3.9854    3.0828   -2.9756 O.2       1 UNK         0.0000 
     51 C51         3.4902    2.8651   -0.6641 C.3       1 UNK         0.0000 
     52 H52         4.4376    2.9076   -0.1106 H         1 UNK         0.0000 
     53 H53         3.1453    3.8956   -0.7941 H         1 UNK         0.0000 
     54 N54         2.5396    2.0698    0.0975 N.am      1 UNK         0.0000 
     55 H55         1.9263    1.4207   -0.4012 H         1 UNK         0.0000 
     56 C56         2.4219    2.2513    1.4257 C.2       1 UNK         0.0000 
     57 O57         3.0612    3.1018    2.0422 O.2       1 UNK         0.0000 
     58 C58         1.5501    1.2590    2.2138 C.3       1 UNK         0.0000 
     59 H59         1.1807    1.8119    3.0837 H         1 UNK         0.0000 
     60 C60         2.5065    0.1757    2.7008 C.ar      1 UNK         0.0000 
     61 C61         3.1687    0.3387    3.9181 C.ar      1 UNK         0.0000 
     62 H62         2.9585    1.2109    4.5314 H         1 UNK         0.0000 
     63 C63         4.0899   -0.6149    4.3500 C.ar      1 UNK         0.0000 
     64 H64         4.5969   -0.4832    5.3007 H         1 UNK         0.0000 
     65 C65         4.3513   -1.7394    3.5669 C.ar      1 UNK         0.0000 
     66 H66         5.0615   -2.4874    3.9047 H         1 UNK         0.0000 
     67 C67         3.6893   -1.9014    2.3492 C.ar      1 UNK         0.0000 
     68 H68         3.8852   -2.7830    1.7448 H         1 UNK         0.0000 
     69 C69         2.7752   -0.9433    1.9138 C.ar      1 UNK         0.0000 
     70 H70         2.2478   -1.0716    0.9714 H         1 UNK         0.0000 
     71 C71        -0.8589    3.1435   -2.1480 C.3       1 UNK         0.0000 
     72 H72        -0.4004    3.7126   -1.3376 H         1 UNK         0.0000 
     73 H73        -1.7665    2.6393   -1.8092 H         1 UNK         0.0000 
     74 H74        -1.0556    3.7997   -2.9986 H         1 UNK         0.0000 
     75 S75         0.3450    1.8974   -2.6417 S.3       1 UNK         0.0000 
     76 C76        -0.6323    0.9904   -3.8489 C.3       1 UNK         0.0000 
     77 H77        -1.5150    0.6014   -3.3357 H         1 UNK         0.0000 
     78 H78        -0.0029    0.1780   -4.2151 H         1 UNK         0.0000 
     79 H79        -0.9046    1.6558   -4.6707 H         1 UNK         0.0000 
     80 O80         0.4289    0.9266   -1.4384 O.2       1 UNK         0.0000 
@<TRIPOS>BOND
     1    1    2 1    
     2    1    3 1    
     3    1    4 1    
     4    1    5 1    
     5    5   14 1    
     6    5    6 1    
     7    5   10 1    
     8    6    9 1    
     9    6    7 1    
    10    6    8 1    
    11   10   11 1    
    12   10   12 1    
    13   10   13 1    
    14   14   15 1    
    15   15   17 am   BACKBONE|DICT|INTERRES
    16   15   16 2    
    17   17   19 1    
    18   17   18 1    
    19   19   24 1    
    20   19   25 1    
    21   19   20 1    
    22   20   21 am   BACKBONE|DICT|INTERRES
    23   20   23 2    
    24   21   22 1    
    25   21   58 1    
    26   25   27 1    
    27   25   26 1    
    28   25   28 1    
    29   28   29 ar   
    30   28   33 ar   
    31   29   30 ar   
    32   29   32 1    
    33   30   31 1    
    34   30   37 ar   
    35   33   35 ar   
    36   33   34 1    
    37   35   37 ar   
    38   35   36 1    
    39   37   38 1    
    40   38   39 1    
    41   39   40 ar   
    42   39   44 ar   
    43   40   43 1    
    44   40   41 ar   
    45   41   42 1    
    46   41   48 ar   
    47   44   45 1    
    48   44   46 ar   
    49   46   47 1    
    50   46   48 ar   
    51   48   49 1    
    52   49   50 2    
    53   49   51 1    
    54   51   54 1    
    55   51   52 1    
    56   51   53 1    
    57   54   55 1    
    58   54   56 am   BACKBONE|DICT|INTERRES
    59   56   58 1    
    60   56   57 2    
    61   58   59 1    
    62   58   60 1    
    63   60   69 ar   
    64   60   61 ar   
    65   61   63 ar   
    66   61   62 1    
    67   63   65 ar   
    68   63   64 1    
    69   65   66 1    
    70   65   67 ar   
    71   67   68 1    
    72   67   69 ar   
    73   69   70 1    
    74   71   73 1    
    75   71   75 1    
    76   71   72 1    
    77   71   74 1    
    78   75   80 2    
    79   75   76 1    
    80   76   77 1    
    81   76   78 1    
    82   76   79 1    
@<TRIPOS>SUBSTRUCTURE
     1 UNK         1 GROUP             0       ****    0 ROOT    
@<TRIPOS>MOLECULE
Cpd2-4000
80   82    1
SMALL
USER_CHARGES


@<TRIPOS>ATOM
      1 C1         -5.1667    2.7873   -0.2427 C.3       1 UNK         0.0000 
      2 H2         -5.0391    2.7847    0.8401 H         1 UNK         0.0000 
      3 H3         -5.7045    3.6947   -0.5325 H         1 UNK         0.0000 
      4 H4         -5.7691    1.9228   -0.5374 H         1 UNK         0.0000 
      5 C5         -3.8213    2.7578   -0.9611 C.3       1 UNK         0.0000 
      6 C6         -4.0203    2.7912   -2.4718 C.3       1 UNK         0.0000 
      7 H7         -3.0571    2.7280   -2.9857 H         1 UNK         0.0000 
      8 H8         -4.6481    1.9555   -2.7933 H         1 UNK         0.0000 
      9 H9         -4.5090    3.7262   -2.7576 H         1 UNK         0.0000 
     10 C10        -2.8964    3.8868   -0.5174 C.3       1 UNK         0.0000 
     11 H11        -3.3363    4.8434   -0.8139 H         1 UNK         0.0000 
     12 H12        -2.7558    3.8850    0.5641 H         1 UNK         0.0000 
     13 H13        -1.9230    3.7897   -1.0073 H         1 UNK         0.0000 
     14 O14        -3.1685    1.4633   -0.7515 O.3       1 UNK         0.0000 
     15 C15        -2.8069    1.0625    0.4750 C.2       1 UNK         0.0000 
     16 O16        -2.9932    1.6709    1.5174 O.2       1 UNK         0.0000 
     17 N17        -2.1764   -0.1437    0.4121 N.am      1 UNK         0.0000 
     18 H18        -2.0571   -0.5755   -0.4951 H         1 UNK         0.0000 
     19 C19        -1.7313   -0.8153    1.6132 C.3       1 UNK         0.0000 
     20 C20        -0.3913   -0.2800    2.1517 C.2       1 UNK         0.0000 
     21 N21         0.3363    0.4780    1.3100 N.am      1 UNK         0.0000 
     22 H22        -0.0717    0.7672    0.4278 H         1 UNK         0.0000 
     23 O23        -0.0376   -0.5616    3.2956 O.2       1 UNK         0.0000 
     24 H24        -2.4536   -0.6047    2.4074 H         1 UNK         0.0000 
     25 C25        -1.6793   -2.3470    1.4047 C.3       1 UNK         0.0000 
     26 H26        -2.6898   -2.6822    1.1537 H         1 UNK         0.0000 
     27 H27        -1.3999   -2.7959    2.3614 H         1 UNK         0.0000 
     28 C28        -0.6947   -2.7310    0.3287 C.ar      1 UNK         0.0000 
     29 C29        -1.0774   -2.8134   -1.0153 C.ar      1 UNK         0.0000 
     30 C30        -0.1243   -2.8997   -2.0336 C.ar      1 UNK         0.0000 
     31 H31        -0.4129   -2.8821   -3.0796 H         1 UNK         0.0000 
     32 H32        -2.1314   -2.7655   -1.2801 H         1 UNK         0.0000 
     33 C33         0.6599   -2.8843    0.6488 C.ar      1 UNK         0.0000 
     34 H34         0.9748   -2.8619    1.6898 H         1 UNK         0.0000 
     35 C35         1.6148   -2.9983   -0.3527 C.ar      1 UNK         0.0000 
     36 H36         2.6710   -3.0686   -0.1133 H         1 UNK         0.0000 
     37 C37         1.2189   -2.9270   -1.6854 C.ar      1 UNK         0.0000 
     38 O38         2.2049   -2.7765   -2.6621 O.3       1 UNK         0.0000 
     39 C39         2.8017   -1.5303   -2.5504 C.ar      1 UNK         0.0000 
     40 C40         4.1838   -1.4494   -2.3957 C.ar      1 UNK         0.0000 
     41 C41         4.7656   -0.2061   -2.1515 C.ar      1 UNK         0.0000 
     42 H42         5.8362   -0.1343   -1.9876 H         1 UNK         0.0000 
     43 H43         4.7788   -2.3565   -2.4159 H         1 UNK         0.0000 
     44 C44         2.0107   -0.3784   -2.5460 C.ar      1 UNK         0.0000 
     45 H45         0.9390   -0.4557   -2.6969 H         1 UNK         0.0000 
     46 C46         2.5967    0.8500   -2.2804 C.ar      1 UNK         0.0000 
     47 H47         1.9664    1.7308   -2.2275 H         1 UNK         0.0000 
     48 C48         3.9741    0.9428   -2.0449 C.ar      1 UNK         0.0000 
     49 C49         4.5886    2.2268   -1.5952 C.2       1 UNK         0.0000 
     50 O50         5.7521    2.4996   -1.8310 O.2       1 UNK         0.0000 
     51 C51         3.7253    3.1671   -0.7410 C.3       1 UNK         0.0000 
     52 H52         4.3667    3.9824   -0.4038 H         1 UNK         0.0000 
     53 H53         2.8957    3.5719   -1.3273 H         1 UNK         0.0000 
     54 N54         3.1862    2.4502    0.3992 N.am      1 UNK         0.0000 
     55 H55         3.8846    2.0968    1.0534 H         1 UNK         0.0000 
     56 C56         1.8944    2.1127    0.5266 C.2       1 UNK         0.0000 
     57 O57         1.0036    2.4936   -0.2349 O.2       1 UNK         0.0000 
     58 C58         1.5451    1.1802    1.7127 C.3       1 UNK         0.0000 
     59 H59         1.3149    1.8245    2.5733 H         1 UNK         0.0000 
     60 C60         2.6825    0.2522    2.0973 C.ar      1 UNK         0.0000 
     61 C61         3.1731    0.2337    3.4025 C.ar      1 UNK         0.0000 
     62 H62         2.7166    0.8705    4.1555 H         1 UNK         0.0000 
     63 C63         4.2343   -0.6052    3.7461 C.ar      1 UNK         0.0000 
     64 H64         4.6066   -0.6149    4.7658 H         1 UNK         0.0000 
     65 C65         4.8157   -1.4261    2.7805 C.ar      1 UNK         0.0000 
     66 H66         5.6452   -2.0756    3.0442 H         1 UNK         0.0000 
     67 C67         4.3325   -1.4056    1.4699 C.ar      1 UNK         0.0000 
     68 H68         4.7906   -2.0331    0.7091 H         1 UNK         0.0000 
     69 C69         3.2699   -0.5714    1.1328 C.ar      1 UNK         0.0000 
     70 H70         2.8957   -0.5504    0.1113 H         1 UNK         0.0000 
     71 C71         7.3979    0.7569    0.4573 C.3       1 UNK         0.0000 
     72 H72         7.2119    1.1031   -0.5600 H         1 UNK         0.0000 
     73 H73         6.6690   -0.0042    0.7509 H         1 UNK         0.0000 
     74 H74         8.4205    0.3856    0.5507 H         1 UNK         0.0000 
     75 S75         7.1821    2.1839    1.5387 S.3       1 UNK         0.0000 
     76 C76         7.5519    1.3631    3.1026 C.3       1 UNK         0.0000 
     77 H77         7.3759    2.0897    3.8964 H         1 UNK         0.0000 
     78 H78         8.5981    1.0512    3.1053 H         1 UNK         0.0000 
     79 H79         6.8812    0.5075    3.2110 H         1 UNK         0.0000 
     80 O80         5.6729    2.4520    1.5729 O.2       1 UNK         0.0000 
@<TRIPOS>BOND
     1    1    4 1    
     2    1    3 1    
     3    1    5 1    
     4    1    2 1    
     5    5    6 1    
     6    5   10 1    
     7    5   14 1    
     8    6    8 1    
     9    6    9 1    
    10    6    7 1    
    11   10   11 1    
    12   10   13 1    
    13   10   12 1    
    14   14   15 1    
    15   15   17 am   BACKBONE|DICT|INTERRES
    16   15   16 2    
    17   17   18 1    
    18   17   19 1    
    19   19   24 1    
    20   19   25 1    
    21   19   20 1    
    22   20   21 am   BACKBONE|DICT|INTERRES
    23   20   23 2    
    24   21   22 1    
    25   21   58 1    
    26   25   26 1    
    27   25   28 1    
    28   25   27 1    
    29   28   29 ar   
    30   28   33 ar   
    31   29   32 1    
    32   29   30 ar   
    33   30   31 1    
    34   30   37 ar   
    35   33   35 ar   
    36   33   34 1    
    37   35   37 ar   
    38   35   36 1    
    39   37   38 1    
    40   38   39 1    
    41   39   44 ar   
    42   39   40 ar   
    43   40   41 ar   
    44   40   43 1    
    45   41   42 1    
    46   41   48 ar   
    47   44   45 1    
    48   44   46 ar   
    49   46   47 1    
    50   46   48 ar   
    51   48   49 1    
    52   49   50 2    
    53   49   51 1    
    54   51   53 1    
    55   51   52 1    
    56   51   54 1    
    57   54   55 1    
    58   54   56 am   BACKBONE|DICT|INTERRES
    59   56   57 2    
    60   56   58 1    
    61   58   59 1    
    62   58   60 1    
    63   60   69 ar   
    64   60   61 ar   
    65   61   62 1    
    66   61   63 ar   
    67   63   65 ar   
    68   63   64 1    
    69   65   67 ar   
    70   65   66 1    
    71   67   69 ar   
    72   67   68 1    
    73   69   70 1    
    74   71   72 1    
    75   71   73 1    
    76   71   74 1    
    77   71   75 1    
    78   75   76 1    
    79   75   80 2    
    80   76   78 1    
    81   76   77 1    
    82   76   79 1    
@<TRIPOS>SUBSTRUCTURE
     1 UNK         1 GROUP             0       ****    0 ROOT    
@<TRIPOS>MOLECULE
Cpd2-4500
80   82    1
SMALL
USER_CHARGES


@<TRIPOS>ATOM
      1 C1         -5.1965    2.7237   -0.3442 C.3       1 UNK         0.0000 
      2 H2         -5.7741    1.8464   -0.6511 H         1 UNK         0.0000 
      3 H3         -5.0953    2.7261    0.7414 H         1 UNK         0.0000 
      4 H4         -5.7455    3.6192   -0.6493 H         1 UNK         0.0000 
      5 C5         -3.8340    2.7201   -1.0299 C.3       1 UNK         0.0000 
      6 C6         -3.9970    2.7471   -2.5452 C.3       1 UNK         0.0000 
      7 H7         -4.4967    3.6719   -2.8447 H         1 UNK         0.0000 
      8 H8         -3.0205    2.7020   -3.0353 H         1 UNK         0.0000 
      9 H9         -4.6002    1.8986   -2.8799 H         1 UNK         0.0000 
     10 C10        -2.9430    3.8682   -0.5664 C.3       1 UNK         0.0000 
     11 H11        -2.8314    3.8730    0.5185 H         1 UNK         0.0000 
     12 H12        -1.9550    3.7883   -1.0296 H         1 UNK         0.0000 
     13 H13        -3.3932    4.8151   -0.8784 H         1 UNK         0.0000 
     14 O14        -3.1606    1.4394   -0.8025 O.3       1 UNK         0.0000 
     15 C15        -2.8178    1.0477    0.4325 C.2       1 UNK         0.0000 
     16 O16        -3.0408    1.6530    1.4695 O.2       1 UNK         0.0000 
     17 N17        -2.1598   -0.1444    0.3836 N.am      1 UNK         0.0000 
     18 H18        -2.0099   -0.5712   -0.5216 H         1 UNK         0.0000 
     19 C19        -1.7243   -0.8098    1.5915 C.3       1 UNK         0.0000 
     20 C20        -0.3844   -0.2784    2.1351 C.2       1 UNK         0.0000 
     21 N21         0.3345    0.5032    1.3074 N.am      1 UNK         0.0000 
     22 H22        -0.0787    0.8084    0.4330 H         1 UNK         0.0000 
     23 O23        -0.0249   -0.5806    3.2719 O.2       1 UNK         0.0000 
     24 H24        -2.4509   -0.5876    2.3788 H         1 UNK         0.0000 
     25 C25        -1.6821   -2.3437    1.3954 C.3       1 UNK         0.0000 
     26 H26        -2.6943   -2.6740    1.1452 H         1 UNK         0.0000 
     27 H27        -1.4062   -2.7873    2.3557 H         1 UNK         0.0000 
     28 C28        -0.6983   -2.7405    0.3232 C.ar      1 UNK         0.0000 
     29 C29        -1.0776   -2.8204   -1.0221 C.ar      1 UNK         0.0000 
     30 C30        -0.1217   -2.9104   -2.0375 C.ar      1 UNK         0.0000 
     31 H31        -0.4068   -2.8874   -3.0843 H         1 UNK         0.0000 
     32 H32        -2.1303   -2.7648   -1.2900 H         1 UNK         0.0000 
     33 C33         0.6537   -2.9056    0.6476 C.ar      1 UNK         0.0000 
     34 H34         0.9652   -2.8870    1.6896 H         1 UNK         0.0000 
     35 C35         1.6110   -3.0240   -0.3514 C.ar      1 UNK         0.0000 
     36 H36         2.6663   -3.1017   -0.1095 H         1 UNK         0.0000 
     37 C37         1.2203   -2.9440   -1.6849 C.ar      1 UNK         0.0000 
     38 O38         2.2106   -2.7862   -2.6558 O.3       1 UNK         0.0000 
     39 C39         2.8007   -1.5370   -2.5399 C.ar      1 UNK         0.0000 
     40 C40         4.1857   -1.4484   -2.4167 C.ar      1 UNK         0.0000 
     41 C41         4.7653   -0.2034   -2.1749 C.ar      1 UNK         0.0000 
     42 H42         5.8399   -0.1214   -2.0432 H         1 UNK         0.0000 
     43 H43         4.7859   -2.3511   -2.4628 H         1 UNK         0.0000 
     44 C44         2.0031   -0.3897   -2.5055 C.ar      1 UNK         0.0000 
     45 H45         0.9288   -0.4710   -2.6333 H         1 UNK         0.0000 
     46 C46         2.5877    0.8395   -2.2405 C.ar      1 UNK         0.0000 
     47 H47         1.9535    1.7161   -2.1669 H         1 UNK         0.0000 
     48 C48         3.9693    0.9388   -2.0361 C.ar      1 UNK         0.0000 
     49 C49         4.5880    2.2247   -1.5976 C.2       1 UNK         0.0000 
     50 O50         5.7446    2.5029   -1.8582 O.2       1 UNK         0.0000 
     51 C51         3.7364    3.1673   -0.7333 C.3       1 UNK         0.0000 
     52 H52         4.3867    3.9774   -0.3994 H         1 UNK         0.0000 
     53 H53         2.9105    3.5834   -1.3173 H         1 UNK         0.0000 
     54 N54         3.1915    2.4557    0.4070 N.am      1 UNK         0.0000 
     55 H55         3.8866    2.0902    1.0622 H         1 UNK         0.0000 
     56 C56         1.8948    2.1429    0.5397 C.2       1 UNK         0.0000 
     57 O57         1.0051    2.5414   -0.2150 O.2       1 UNK         0.0000 
     58 C58         1.5376    1.2085    1.7220 C.3       1 UNK         0.0000 
     59 H59         1.2998    1.8510    2.5817 H         1 UNK         0.0000 
     60 C60         2.6774    0.2863    2.1099 C.ar      1 UNK         0.0000 
     61 C61         3.2270    0.3371    3.3901 C.ar      1 UNK         0.0000 
     62 H62         2.8069    1.0164    4.1272 H         1 UNK         0.0000 
     63 C63         4.3060   -0.4806    3.7280 C.ar      1 UNK         0.0000 
     64 H64         4.7292   -0.4315    4.7264 H         1 UNK         0.0000 
     65 C65         4.8398   -1.3568    2.7843 C.ar      1 UNK         0.0000 
     66 H66         5.6828   -1.9903    3.0430 H         1 UNK         0.0000 
     67 C67         4.2923   -1.4100    1.5003 C.ar      1 UNK         0.0000 
     68 H68         4.7117   -2.0842    0.7570 H         1 UNK         0.0000 
     69 C69         3.2206   -0.5870    1.1643 C.ar      1 UNK         0.0000 
     70 H70         2.8041   -0.6136    0.1593 H         1 UNK         0.0000 
     71 C71         8.2556    2.6038    1.8541 C.3       1 UNK         0.0000 
     72 H72         8.1959    3.1098    0.8880 H         1 UNK         0.0000 
     73 H73         9.1909    2.0493    1.9526 H         1 UNK         0.0000 
     74 H74         8.1594    3.3219    2.6688 H         1 UNK         0.0000 
     75 S75         6.8685    1.4556    1.9864 S.3       1 UNK         0.0000 
     76 C76         7.2170    0.4936    0.5010 C.3       1 UNK         0.0000 
     77 H77         8.1612   -0.0394    0.6310 H         1 UNK         0.0000 
     78 H78         7.2526    1.1757   -0.3524 H         1 UNK         0.0000 
     79 H79         6.3967   -0.2176    0.3910 H         1 UNK         0.0000 
     80 O80         5.6346    2.2994    1.6413 O.2       1 UNK         0.0000 
@<TRIPOS>BOND
     1    1    2 1    
     2    1    4 1    
     3    1    5 1    
     4    1    3 1    
     5    5    6 1    
     6    5   10 1    
     7    5   14 1    
     8    6    9 1    
     9    6    7 1    
    10    6    8 1    
    11   10   13 1    
    12   10   12 1    
    13   10   11 1    
    14   14   15 1    
    15   15   17 am   BACKBONE|DICT|INTERRES
    16   15   16 2    
    17   17   18 1    
    18   17   19 1    
    19   19   24 1    
    20   19   25 1    
    21   19   20 1    
    22   20   21 am   BACKBONE|DICT|INTERRES
    23   20   23 2    
    24   21   22 1    
    25   21   58 1    
    26   25   26 1    
    27   25   28 1    
    28   25   27 1    
    29   28   29 ar   
    30   28   33 ar   
    31   29   32 1    
    32   29   30 ar   
    33   30   31 1    
    34   30   37 ar   
    35   33   35 ar   
    36   33   34 1    
    37   35   37 ar   
    38   35   36 1    
    39   37   38 1    
    40   38   39 1    
    41   39   40 ar   
    42   39   44 ar   
    43   40   43 1    
    44   40   41 ar   
    45   41   42 1    
    46   41   48 ar   
    47   44   45 1    
    48   44   46 ar   
    49   46   47 1    
    50   46   48 ar   
    51   48   49 1    
    52   49   50 2    
    53   49   51 1    
    54   51   53 1    
    55   51   52 1    
    56   51   54 1    
    57   54   55 1    
    58   54   56 am   BACKBONE|DICT|INTERRES
    59   56   57 2    
    60   56   58 1    
    61   58   59 1    
    62   58   60 1    
    63   60   69 ar   
    64   60   61 ar   
    65   61   62 1    
    66   61   63 ar   
    67   63   65 ar   
    68   63   64 1    
    69   65   67 ar   
    70   65   66 1    
    71   67   69 ar   
    72   67   68 1    
    73   69   70 1    
    74   71   72 1    
    75   71   73 1    
    76   71   74 1    
    77   71   75 1    
    78   75   80 2    
    79   75   76 1    
    80   76   78 1    
    81   76   77 1    
    82   76   79 1    
@<TRIPOS>SUBSTRUCTURE
     1 UNK         1 GROUP             0       ****    0 ROOT    
@<TRIPOS>MOLECULE
Cpd2-5000
80   82    1
SMALL
USER_CHARGES


@<TRIPOS>ATOM
      1 C1         -5.1971    2.7208   -0.3479 C.3       1 UNK         0.0000 
      2 H2         -5.7470    3.6155   -0.6542 H         1 UNK         0.0000 
      3 H3         -5.7735    1.8426   -0.6539 H         1 UNK         0.0000 
      4 H4         -5.0966    2.7248    0.7378 H         1 UNK         0.0000 
      5 C5         -3.8342    2.7180   -1.0329 C.3       1 UNK         0.0000 
      6 C6         -3.9966    2.7442   -2.5482 C.3       1 UNK         0.0000 
      7 H7         -3.0199    2.6991   -3.0379 H         1 UNK         0.0000 
      8 H8         -4.5996    1.8955   -2.8827 H         1 UNK         0.0000 
      9 H9         -4.4965    3.6687   -2.8483 H         1 UNK         0.0000 
     10 C10        -2.9444    3.8671   -0.5694 C.3       1 UNK         0.0000 
     11 H11        -2.8331    3.8721    0.5155 H         1 UNK         0.0000 
     12 H12        -1.9563    3.7880   -1.0325 H         1 UNK         0.0000 
     13 H13        -3.3955    4.8135   -0.8815 H         1 UNK         0.0000 
     14 O14        -3.1598    1.4381   -0.8046 O.3       1 UNK         0.0000 
     15 C15        -2.8180    1.0468    0.4309 C.2       1 UNK         0.0000 
     16 O16        -3.0425    1.6520    1.4675 O.2       1 UNK         0.0000 
     17 N17        -2.1591   -0.1449    0.3828 N.am      1 UNK         0.0000 
     18 H18        -2.0082   -0.5715   -0.5223 H         1 UNK         0.0000 
     19 C19        -1.7241   -0.8099    1.5910 C.3       1 UNK         0.0000 
     20 C20        -0.3842   -0.2784    2.1347 C.2       1 UNK         0.0000 
     21 N21         0.3345    0.5037    1.3074 N.am      1 UNK         0.0000 
     22 H22        -0.0787    0.8088    0.4329 H         1 UNK         0.0000 
     23 O23        -0.0248   -0.5808    3.2715 O.2       1 UNK         0.0000 
     24 H24        -2.4509   -0.5873    2.3779 H         1 UNK         0.0000 
     25 C25        -1.6820   -2.3439    1.3955 C.3       1 UNK         0.0000 
     26 H26        -2.6942   -2.6742    1.1453 H         1 UNK         0.0000 
     27 H27        -1.4061   -2.7873    2.3557 H         1 UNK         0.0000 
     28 C28        -0.6984   -2.7408    0.3232 C.ar      1 UNK         0.0000 
     29 C29        -1.0776   -2.8207   -1.0221 C.ar      1 UNK         0.0000 
     30 C30        -0.1218   -2.9107   -2.0374 C.ar      1 UNK         0.0000 
     31 H31        -0.4069   -2.8876   -3.0843 H         1 UNK         0.0000 
     32 H32        -2.1305   -2.7651   -1.2899 H         1 UNK         0.0000 
     33 C33         0.6538   -2.9059    0.6476 C.ar      1 UNK         0.0000 
     34 H34         0.9653   -2.8874    1.6895 H         1 UNK         0.0000 
     35 C35         1.6110   -3.0241   -0.3515 C.ar      1 UNK         0.0000 
     36 H36         2.6663   -3.1018   -0.1097 H         1 UNK         0.0000 
     37 C37         1.2203   -2.9441   -1.6849 C.ar      1 UNK         0.0000 
     38 O38         2.2104   -2.7861   -2.6559 O.3       1 UNK         0.0000 
     39 C39         2.8005   -1.5369   -2.5399 C.ar      1 UNK         0.0000 
     40 C40         4.1856   -1.4485   -2.4167 C.ar      1 UNK         0.0000 
     41 C41         4.7653   -0.2035   -2.1748 C.ar      1 UNK         0.0000 
     42 H42         5.8399   -0.1214   -2.0433 H         1 UNK         0.0000 
     43 H43         4.7857   -2.3511   -2.4630 H         1 UNK         0.0000 
     44 C44         2.0030   -0.3896   -2.5052 C.ar      1 UNK         0.0000 
     45 H45         0.9287   -0.4710   -2.6331 H         1 UNK         0.0000 
     46 C46         2.5876    0.8395   -2.2402 C.ar      1 UNK         0.0000 
     47 H47         1.9534    1.7163   -2.1664 H         1 UNK         0.0000 
     48 C48         3.9693    0.9387   -2.0359 C.ar      1 UNK         0.0000 
     49 C49         4.5881    2.2246   -1.5976 C.2       1 UNK         0.0000 
     50 O50         5.7447    2.5029   -1.8585 O.2       1 UNK         0.0000 
     51 C51         3.7366    3.1674   -0.7332 C.3       1 UNK         0.0000 
     52 H52         4.3871    3.9773   -0.3993 H         1 UNK         0.0000 
     53 H53         2.9108    3.5837   -1.3173 H         1 UNK         0.0000 
     54 N54         3.1916    2.4559    0.4070 N.am      1 UNK         0.0000 
     55 H55         3.8865    2.0901    1.0621 H         1 UNK         0.0000 
     56 C56         1.8947    2.1433    0.5398 C.2       1 UNK         0.0000 
     57 O57         1.0052    2.5420   -0.2149 O.2       1 UNK         0.0000 
     58 C58         1.5375    1.2088    1.7221 C.3       1 UNK         0.0000 
     59 H59         1.2996    1.8515    2.5817 H         1 UNK         0.0000 
     60 C60         2.6774    0.2869    2.1100 C.ar      1 UNK         0.0000 
     61 C61         3.2273    0.3381    3.3900 C.ar      1 UNK         0.0000 
     62 H62         2.8073    1.0175    4.1271 H         1 UNK         0.0000 
     63 C63         4.3065   -0.4795    3.7281 C.ar      1 UNK         0.0000 
     64 H64         4.7299   -0.4301    4.7263 H         1 UNK         0.0000 
     65 C65         4.8401   -1.3559    2.7843 C.ar      1 UNK         0.0000 
     66 H66         5.6832   -1.9892    3.0431 H         1 UNK         0.0000 
     67 C67         4.2924   -1.4095    1.5005 C.ar      1 UNK         0.0000 
     68 H68         4.7116   -2.0839    0.7573 H         1 UNK         0.0000 
     69 C69         3.2204   -0.5866    1.1645 C.ar      1 UNK         0.0000 
     70 H70         2.8037   -0.6134    0.1597 H         1 UNK         0.0000 
     71 C71         8.2564    2.6041    1.8521 C.3       1 UNK         0.0000 
     72 H72         9.1917    2.0500    1.9515 H         1 UNK         0.0000 
     73 H73         8.1597    3.3228    2.6661 H         1 UNK         0.0000 
     74 H74         8.1971    3.1089    0.8855 H         1 UNK         0.0000 
     75 S75         6.8696    1.4556    1.9849 S.3       1 UNK         0.0000 
     76 C76         7.2188    0.4924    0.5004 C.3       1 UNK         0.0000 
     77 H77         7.2541    1.1737   -0.3535 H         1 UNK         0.0000 
     78 H78         6.3990   -0.2195    0.3909 H         1 UNK         0.0000 
     79 H79         8.1634   -0.0398    0.6310 H         1 UNK         0.0000 
     80 O80         5.6355    2.2987    1.6385 O.2       1 UNK         0.0000 
@<TRIPOS>BOND
     1    1    3 1    
     2    1    2 1    
     3    1    5 1    
     4    1    4 1    
     5    5    6 1    
     6    5   10 1    
     7    5   14 1    
     8    6    8 1    
     9    6    9 1    
    10    6    7 1    
    11   10   13 1    
    12   10   12 1    
    13   10   11 1    
    14   14   15 1    
    15   15   17 am   BACKBONE|DICT|INTERRES
    16   15   16 2    
    17   17   18 1    
    18   17   19 1    
    19   19   24 1    
    20   19   25 1    
    21   19   20 1    
    22   20   21 am   BACKBONE|DICT|INTERRES
    23   20   23 2    
    24   21   22 1    
    25   21   58 1    
    26   25   26 1    
    27   25   28 1    
    28   25   27 1    
    29   28   29 ar   
    30   28   33 ar   
    31   29   32 1    
    32   29   30 ar   
    33   30   31 1    
    34   30   37 ar   
    35   33   35 ar   
    36   33   34 1    
    37   35   37 ar   
    38   35   36 1    
    39   37   38 1    
    40   38   39 1    
    41   39   40 ar   
    42   39   44 ar   
    43   40   43 1    
    44   40   41 ar   
    45   41   42 1    
    46   41   48 ar   
    47   44   45 1    
    48   44   46 ar   
    49   46   47 1    
    50   46   48 ar   
    51   48   49 1    
    52   49   50 2    
    53   49   51 1    
    54   51   53 1    
    55   51   52 1    
    56   51   54 1    
    57   54   55 1    
    58   54   56 am   BACKBONE|DICT|INTERRES
    59   56   57 2    
    60   56   58 1    
    61   58   59 1    
    62   58   60 1    
    63   60   69 ar   
    64   60   61 ar   
    65   61   62 1    
    66   61   63 ar   
    67   63   65 ar   
    68   63   64 1    
    69   65   67 ar   
    70   65   66 1    
    71   67   69 ar   
    72   67   68 1    
    73   69   70 1    
    74   71   74 1    
    75   71   72 1    
    76   71   73 1    
    77   71   75 1    
    78   75   80 2    
    79   75   76 1    
    80   76   77 1    
    81   76   78 1    
    82   76   79 1    
@<TRIPOS>SUBSTRUCTURE
     1 UNK         1 GROUP             0       ****    0 ROOT    
