@<TRIPOS>MOLECULE
Cpd2-500
90   91    1
SMALL
USER_CHARGES


@<TRIPOS>ATOM
      1 C1          4.1062   -3.1712    2.8310 C.3       1 UNK         0.0000 
      2 H2          4.0558   -3.6199    1.8329 H         1 UNK         0.0000 
      3 H3          4.5243   -3.9119    3.5191 H         1 UNK         0.0000 
      4 H4          3.0959   -2.9197    3.1572 H         1 UNK         0.0000 
      5 C5          4.9980   -1.9353    2.8141 C.3       1 UNK         0.0000 
      6 C6          5.0862   -1.2615    4.1809 C.3       1 UNK         0.0000 
      7 H7          5.6365   -0.3190    4.0994 H         1 UNK         0.0000 
      8 H8          4.0981   -1.0638    4.5985 H         1 UNK         0.0000 
      9 H9          5.6328   -1.9186    4.8633 H         1 UNK         0.0000 
     10 C10         6.3909   -2.2841    2.3032 C.3       1 UNK         0.0000 
     11 H11         6.3322   -2.7134    1.2992 H         1 UNK         0.0000 
     12 H12         7.0195   -1.3897    2.2681 H         1 UNK         0.0000 
     13 H13         6.8557   -3.0138    2.9713 H         1 UNK         0.0000 
     14 O14         4.5117   -0.9920    1.8060 O.3       1 UNK         0.0000 
     15 C15         3.3216   -0.3818    1.9378 C.2       1 UNK         0.0000 
     16 O16         2.5253   -0.5738    2.8501 O.2       1 UNK         0.0000 
     17 N17         3.1229    0.4890    0.9177 N.am      1 UNK         0.0000 
     18 H18         3.7308    0.3806    0.0975 H         1 UNK         0.0000 
     19 C19         1.8491    1.1729    0.7732 C.3       1 UNK         0.0000 
     20 C20         0.9218    0.2884   -0.0775 C.2       1 UNK         0.0000 
     21 N21         0.0436   -0.4719    0.6215 N.am      1 UNK         0.0000 
     22 H22         0.0656   -0.4209    1.6440 H         1 UNK         0.0000 
     23 O23         1.0439    0.2455   -1.3005 O.2       1 UNK         0.0000 
     24 H24         1.4254    1.2876    1.7759 H         1 UNK         0.0000 
     25 C25         2.0532    2.5507    0.1297 C.3       1 UNK         0.0000 
     26 H26         2.4713    2.4181   -0.8728 H         1 UNK         0.0000 
     27 H27         2.7810    3.0960    0.7387 H         1 UNK         0.0000 
     28 C28         0.7366    3.2836    0.0678 C.ar      1 UNK         0.0000 
     29 C29         0.0146    3.3874   -1.1233 C.ar      1 UNK         0.0000 
     30 C30        -1.2989    3.8603   -1.1265 C.ar      1 UNK         0.0000 
     31 H31        -1.8837    3.8865   -2.0403 H         1 UNK         0.0000 
     32 H32         0.4610    3.0391   -2.0502 H         1 UNK         0.0000 
     33 C33         0.1558    3.7587    1.2502 C.ar      1 UNK         0.0000 
     34 H34         0.7185    3.7191    2.1801 H         1 UNK         0.0000 
     35 C35        -1.1539    4.2245    1.2641 C.ar      1 UNK         0.0000 
     36 H36        -1.6295    4.5320    2.1901 H         1 UNK         0.0000 
     37 C37        -1.8872    4.2169    0.0800 C.ar      1 UNK         0.0000 
     38 O38        -3.2692    4.4383    0.1414 O.3       1 UNK         0.0000 
     39 C39        -3.8548    3.2791    0.6421 C.ar      1 UNK         0.0000 
     40 C40        -3.8899    2.1387   -0.1606 C.ar      1 UNK         0.0000 
     41 C41        -4.2145    0.9179    0.4119 C.ar      1 UNK         0.0000 
     42 H42        -4.1811    0.0185   -0.1968 H         1 UNK         0.0000 
     43 H43        -3.5901    2.2034   -1.2010 H         1 UNK         0.0000 
     44 C44        -4.2816    3.2457    1.9669 C.ar      1 UNK         0.0000 
     45 H45        -4.2685    4.1553    2.5581 H         1 UNK         0.0000 
     46 C46        -4.6286    2.0198    2.5285 C.ar      1 UNK         0.0000 
     47 H47        -4.9043    1.9543    3.5766 H         1 UNK         0.0000 
     48 C48        -4.5404    0.8468    1.7721 C.ar      1 UNK         0.0000 
     49 C49        -4.7014   -0.4653    2.4546 C.2       1 UNK         0.0000 
     50 O50        -5.3477   -0.5836    3.4812 O.2       1 UNK         0.0000 
     51 C51        -3.9944   -1.6853    1.8611 C.3       1 UNK         0.0000 
     52 H52        -4.0530   -2.4798    2.6096 H         1 UNK         0.0000 
     53 H53        -4.5347   -2.0125    0.9667 H         1 UNK         0.0000 
     54 N54        -2.6145   -1.4422    1.4833 N.am      1 UNK         0.0000 
     55 H55        -1.9568   -1.1801    2.2242 H         1 UNK         0.0000 
     56 C56        -2.1784   -1.6356    0.2235 C.2       1 UNK         0.0000 
     57 O57        -2.9220   -1.9455   -0.7090 O.2       1 UNK         0.0000 
     58 C58        -0.6632   -1.5558   -0.0387 C.3       1 UNK         0.0000 
     59 H59        -0.5785   -1.3687   -1.1101 H         1 UNK         0.0000 
     60 C60        -0.0697   -2.9273    0.2665 C.ar      1 UNK         0.0000 
     61 C61        -0.1541   -3.9338   -0.6993 C.ar      1 UNK         0.0000 
     62 H62        -0.6111   -3.7151   -1.6610 H         1 UNK         0.0000 
     63 C63         0.3537   -5.2058   -0.4393 C.ar      1 UNK         0.0000 
     64 H64         0.2939   -5.9768   -1.2010 H         1 UNK         0.0000 
     65 C65         0.9430   -5.4829    0.7949 C.ar      1 UNK         0.0000 
     66 H66         1.3394   -6.4723    1.0001 H         1 UNK         0.0000 
     67 C67         1.0230   -4.4819    1.7629 C.ar      1 UNK         0.0000 
     68 H68         1.4807   -4.6935    2.7250 H         1 UNK         0.0000 
     69 C69         0.5233   -3.2061    1.5006 C.ar      1 UNK         0.0000 
     70 H70         0.6104   -2.4232    2.2520 H         1 UNK         0.0000 
     71 C71         0.7141    0.8002    5.1710 C.3       1 UNK         0.0000 
     72 H72         1.0324    0.7480    6.2141 H         1 UNK         0.0000 
     73 H73         0.1853    1.7367    4.9894 H         1 UNK         0.0000 
     74 H74         1.5529    0.6771    4.4825 H         1 UNK         0.0000 
     75 S75        -0.4597   -0.5308    4.8589 S.3       1 UNK         0.0000 
     76 C76         0.6603   -1.9267    5.0806 C.3       1 UNK         0.0000 
     77 H77         0.1033   -2.8285    4.8210 H         1 UNK         0.0000 
     78 H78         0.9591   -1.9652    6.1304 H         1 UNK         0.0000 
     79 H79         1.5205   -1.7828    4.4234 H         1 UNK         0.0000 
     80 O80        -0.7340   -0.4553    3.3435 O.2       1 UNK         0.0000 
     81 C81         4.6658   -2.3937   -3.0395 C.3       1 UNK         0.0000 
     82 H82         5.6105   -2.0743   -3.4803 H         1 UNK         0.0000 
     83 H83         3.8281   -1.8814   -3.5173 H         1 UNK         0.0000 
     84 H84         4.5634   -3.4775   -3.1192 H         1 UNK         0.0000 
     85 S85         4.7090   -1.9260   -1.2970 S.3       1 UNK         0.0000 
     86 C86         3.0243   -2.4315   -0.8808 C.3       1 UNK         0.0000 
     87 H87         2.3225   -1.8526   -1.4883 H         1 UNK         0.0000 
     88 H88         2.8627   -2.2261    0.1786 H         1 UNK         0.0000 
     89 H89         2.9203   -3.5057   -1.0572 H         1 UNK         0.0000 
     90 O90         4.7054   -0.3884   -1.3115 O.2       1 UNK         0.0000 
@<TRIPOS>BOND
     1    1    4 1    
     2    1    3 1    
     3    1    5 1    
     4    1    2 1    
     5    5    6 1    
     6    5   10 1    
     7    5   14 1    
     8    6    8 1    
     9    6    7 1    
    10    6    9 1    
    11   10   13 1    
    12   10   12 1    
    13   10   11 1    
    14   14   15 1    
    15   15   16 2    
    16   15   17 am   BACKBONE|DICT|INTERRES
    17   17   18 1    
    18   17   19 1    
    19   19   25 1    
    20   19   24 1    
    21   19   20 1    
    22   20   21 am   BACKBONE|DICT|INTERRES
    23   20   23 2    
    24   21   22 1    
    25   21   58 1    
    26   25   27 1    
    27   25   26 1    
    28   25   28 1    
    29   28   33 ar   
    30   28   29 ar   
    31   29   30 ar   
    32   29   32 1    
    33   30   37 ar   
    34   30   31 1    
    35   33   34 1    
    36   33   35 ar   
    37   35   36 1    
    38   35   37 ar   
    39   37   38 1    
    40   38   39 1    
    41   39   44 ar   
    42   39   40 ar   
    43   40   41 ar   
    44   40   43 1    
    45   41   48 ar   
    46   41   42 1    
    47   44   45 1    
    48   44   46 ar   
    49   46   47 1    
    50   46   48 ar   
    51   48   49 1    
    52   49   50 2    
    53   49   51 1    
    54   51   54 1    
    55   51   52 1    
    56   51   53 1    
    57   54   55 1    
    58   54   56 am   BACKBONE|DICT|INTERRES
    59   56   58 1    
    60   56   57 2    
    61   58   59 1    
    62   58   60 1    
    63   60   69 ar   
    64   60   61 ar   
    65   61   62 1    
    66   61   63 ar   
    67   63   65 ar   
    68   63   64 1    
    69   65   67 ar   
    70   65   66 1    
    71   67   69 ar   
    72   67   68 1    
    73   69   70 1    
    74   71   73 1    
    75   71   72 1    
    76   71   74 1    
    77   71   75 1    
    78   75   76 1    
    79   75   80 2    
    80   76   78 1    
    81   76   77 1    
    82   76   79 1    
    83   81   85 1    
    84   81   82 1    
    85   81   83 1    
    86   81   84 1    
    87   85   90 2    
    88   85   86 1    
    89   86   88 1    
    90   86   87 1    
    91   86   89 1    
@<TRIPOS>SUBSTRUCTURE
     1 UNK         1 GROUP             0       ****    0 ROOT    
@<TRIPOS>MOLECULE
Cpd2-1000
90   91    1
SMALL
USER_CHARGES


@<TRIPOS>ATOM
      1 C1          4.5989   -3.1117    1.8274 C.3       1 UNK         0.0000 
      2 H2          4.4462   -3.4010    0.7827 H         1 UNK         0.0000 
      3 H3          5.1234   -3.9255    2.3368 H         1 UNK         0.0000 
      4 H4          3.6298   -2.9642    2.3073 H         1 UNK         0.0000 
      5 C5          5.4494   -1.8470    1.8938 C.3       1 UNK         0.0000 
      6 C6          5.6037   -1.3191    3.3169 C.3       1 UNK         0.0000 
      7 H7          4.6337   -1.1622    3.7893 H         1 UNK         0.0000 
      8 H8          6.1721   -2.0441    3.9069 H         1 UNK         0.0000 
      9 H9          6.1576   -0.3751    3.3079 H         1 UNK         0.0000 
     10 C10         6.8167   -2.0916    1.2650 C.3       1 UNK         0.0000 
     11 H11         7.4199   -1.1796    1.2939 H         1 UNK         0.0000 
     12 H12         7.3426   -2.8742    1.8180 H         1 UNK         0.0000 
     13 H13         6.7072   -2.4090    0.2241 H         1 UNK         0.0000 
     14 O14         4.8786   -0.8145    1.0312 O.3       1 UNK         0.0000 
     15 C15         3.6413   -0.3339    1.2467 C.2       1 UNK         0.0000 
     16 O16         2.9039   -0.6565    2.1723 O.2       1 UNK         0.0000 
     17 N17         3.3179    0.5807    0.3036 N.am      1 UNK         0.0000 
     18 H18         3.9349    0.7285   -0.5031 H         1 UNK         0.0000 
     19 C19         2.0315    1.2453    0.3440 C.3       1 UNK         0.0000 
     20 C20         0.9648    0.3201   -0.2696 C.2       1 UNK         0.0000 
     21 N21         0.1474   -0.2861    0.6175 N.am      1 UNK         0.0000 
     22 H22         0.3362   -0.2074    1.6114 H         1 UNK         0.0000 
     23 O23         0.8906    0.1393   -1.4834 O.2       1 UNK         0.0000 
     24 H24         1.7820    1.4350    1.3934 H         1 UNK         0.0000 
     25 C25         2.1021    2.5820   -0.4099 C.3       1 UNK         0.0000 
     26 H26         2.3243    2.3841   -1.4628 H         1 UNK         0.0000 
     27 H27         2.9297    3.1602    0.0136 H         1 UNK         0.0000 
     28 C28         0.7930    3.3163   -0.2590 C.ar      1 UNK         0.0000 
     29 C29        -0.2168    3.1747   -1.2170 C.ar      1 UNK         0.0000 
     30 C30        -1.5037    3.6379   -0.9615 C.ar      1 UNK         0.0000 
     31 H31        -2.3069    3.4919   -1.6762 H         1 UNK         0.0000 
     32 H32        -0.0063    2.6480   -2.1435 H         1 UNK         0.0000 
     33 C33         0.5153    4.0380    0.9075 C.ar      1 UNK         0.0000 
     34 H34         1.3003    4.1890    1.6443 H         1 UNK         0.0000 
     35 C35        -0.7716    4.5048    1.1769 C.ar      1 UNK         0.0000 
     36 H36        -1.0075    4.9995    2.1139 H         1 UNK         0.0000 
     37 C37        -1.7829    4.2330    0.2641 C.ar      1 UNK         0.0000 
     38 O38        -3.1214    4.4327    0.6138 O.3       1 UNK         0.0000 
     39 C39        -3.7120    3.2324    0.9695 C.ar      1 UNK         0.0000 
     40 C40        -4.9450    2.8923    0.4133 C.ar      1 UNK         0.0000 
     41 C41        -5.4738    1.6259    0.6594 C.ar      1 UNK         0.0000 
     42 H42        -6.4046    1.3234    0.1888 H         1 UNK         0.0000 
     43 H43        -5.4431    3.5921   -0.2495 H         1 UNK         0.0000 
     44 C44        -3.0578    2.3591    1.8435 C.ar      1 UNK         0.0000 
     45 H45        -2.1196    2.6454    2.3038 H         1 UNK         0.0000 
     46 C46        -3.5852    1.0994    2.0706 C.ar      1 UNK         0.0000 
     47 H47        -3.0476    0.4207    2.7246 H         1 UNK         0.0000 
     48 C48        -4.7767    0.7044    1.4507 C.ar      1 UNK         0.0000 
     49 C49        -5.2571   -0.7009    1.5699 C.2       1 UNK         0.0000 
     50 O50        -6.4209   -1.0061    1.3807 O.2       1 UNK         0.0000 
     51 C51        -4.2162   -1.7893    1.8785 C.3       1 UNK         0.0000 
     52 H52        -3.8448   -1.6797    2.9018 H         1 UNK         0.0000 
     53 H53        -4.7201   -2.7542    1.7896 H         1 UNK         0.0000 
     54 N54        -3.0889   -1.7087    0.9691 N.am      1 UNK         0.0000 
     55 H55        -3.2786   -1.8075   -0.0368 H         1 UNK         0.0000 
     56 C56        -1.8352   -1.4169    1.3560 C.2       1 UNK         0.0000 
     57 O57        -1.4803   -1.2584    2.5246 O.2       1 UNK         0.0000 
     58 C58        -0.8213   -1.2810    0.2078 C.3       1 UNK         0.0000 
     59 H59        -1.3351   -0.9231   -0.6906 H         1 UNK         0.0000 
     60 C60        -0.2152   -2.6457   -0.0993 C.ar      1 UNK         0.0000 
     61 C61        -0.8665   -3.4839   -1.0089 C.ar      1 UNK         0.0000 
     62 H62        -1.7616   -3.1292   -1.5164 H         1 UNK         0.0000 
     63 C63        -0.3652   -4.7582   -1.2696 C.ar      1 UNK         0.0000 
     64 H64        -0.8720   -5.4018   -1.9819 H         1 UNK         0.0000 
     65 C65         0.7880   -5.2021   -0.6214 C.ar      1 UNK         0.0000 
     66 H66         1.1796   -6.1941   -0.8235 H         1 UNK         0.0000 
     67 C67         1.4406   -4.3633    0.2820 C.ar      1 UNK         0.0000 
     68 H68         2.3395   -4.7051    0.7859 H         1 UNK         0.0000 
     69 C69         0.9446   -3.0848    0.5432 C.ar      1 UNK         0.0000 
     70 H70         1.4645   -2.4263    1.2368 H         1 UNK         0.0000 
     71 C71         7.1548    2.7137   -2.6373 C.3       1 UNK         0.0000 
     72 H72         7.9335    3.3863   -2.2728 H         1 UNK         0.0000 
     73 H73         6.6098    3.1821   -3.4571 H         1 UNK         0.0000 
     74 H74         7.5744    1.7562   -2.9519 H         1 UNK         0.0000 
     75 S75         5.9708    2.4151   -1.3121 S.3       1 UNK         0.0000 
     76 C76         7.0708    1.5557   -0.1700 C.3       1 UNK         0.0000 
     77 H77         7.5218    0.7079   -0.6910 H         1 UNK         0.0000 
     78 H78         6.4527    1.2012    0.6573 H         1 UNK         0.0000 
     79 H79         7.8307    2.2518    0.1905 H         1 UNK         0.0000 
     80 O80         5.0286    1.3266   -1.8553 O.2       1 UNK         0.0000 
     81 C81        -4.5375   -0.4700   -3.9423 C.3       1 UNK         0.0000 
     82 H82        -5.1528   -1.3254   -4.2216 H         1 UNK         0.0000 
     83 H83        -3.5306   -0.5680   -4.3526 H         1 UNK         0.0000 
     84 H84        -5.0123    0.4561   -4.2712 H         1 UNK         0.0000 
     85 S85        -4.4274   -0.4635   -2.1449 S.3       1 UNK         0.0000 
     86 C86        -3.2865    0.9192   -1.9562 C.3       1 UNK         0.0000 
     87 H87        -2.3851    0.7202   -2.5420 H         1 UNK         0.0000 
     88 H88        -3.0467    1.0007   -0.8912 H         1 UNK         0.0000 
     89 H89        -3.7880    1.8300   -2.2906 H         1 UNK         0.0000 
     90 O90        -3.5917   -1.7116   -1.7961 O.2       1 UNK         0.0000 
@<TRIPOS>BOND
     1    1    2 1    
     2    1    3 1    
     3    1    4 1    
     4    1    5 1    
     5    5   10 1    
     6    5   14 1    
     7    5    6 1    
     8    6    7 1    
     9    6    8 1    
    10    6    9 1    
    11   10   13 1    
    12   10   11 1    
    13   10   12 1    
    14   14   15 1    
    15   15   17 am   BACKBONE|DICT|INTERRES
    16   15   16 2    
    17   17   18 1    
    18   17   19 1    
    19   19   24 1    
    20   19   25 1    
    21   19   20 1    
    22   20   23 2    
    23   20   21 am   BACKBONE|DICT|INTERRES
    24   21   58 1    
    25   21   22 1    
    26   25   26 1    
    27   25   27 1    
    28   25   28 1    
    29   28   29 ar   
    30   28   33 ar   
    31   29   32 1    
    32   29   30 ar   
    33   30   31 1    
    34   30   37 ar   
    35   33   34 1    
    36   33   35 ar   
    37   35   37 ar   
    38   35   36 1    
    39   37   38 1    
    40   38   39 1    
    41   39   40 ar   
    42   39   44 ar   
    43   40   43 1    
    44   40   41 ar   
    45   41   42 1    
    46   41   48 ar   
    47   44   45 1    
    48   44   46 ar   
    49   46   48 ar   
    50   46   47 1    
    51   48   49 1    
    52   49   50 2    
    53   49   51 1    
    54   51   53 1    
    55   51   54 1    
    56   51   52 1    
    57   54   55 1    
    58   54   56 am   BACKBONE|DICT|INTERRES
    59   56   58 1    
    60   56   57 2    
    61   58   60 1    
    62   58   59 1    
    63   60   61 ar   
    64   60   69 ar   
    65   61   63 ar   
    66   61   62 1    
    67   63   64 1    
    68   63   65 ar   
    69   65   66 1    
    70   65   67 ar   
    71   67   68 1    
    72   67   69 ar   
    73   69   70 1    
    74   71   74 1    
    75   71   73 1    
    76   71   72 1    
    77   71   75 1    
    78   75   80 2    
    79   75   76 1    
    80   76   77 1    
    81   76   78 1    
    82   76   79 1    
    83   81   84 1    
    84   81   82 1    
    85   81   83 1    
    86   81   85 1    
    87   85   86 1    
    88   85   90 2    
    89   86   89 1    
    90   86   87 1    
    91   86   88 1    
@<TRIPOS>SUBSTRUCTURE
     1 UNK         1 GROUP             0       ****    0 ROOT    
@<TRIPOS>MOLECULE
Cpd2-1500
90   91    1
SMALL
USER_CHARGES


@<TRIPOS>ATOM
      1 C1          4.4594   -3.2602    1.5490 C.3       1 UNK         0.0000 
      2 H2          4.2552   -3.4735    0.4948 H         1 UNK         0.0000 
      3 H3          4.9522   -4.1326    1.9878 H         1 UNK         0.0000 
      4 H4          3.5172   -3.0902    2.0729 H         1 UNK         0.0000 
      5 C5          5.3840   -2.0521    1.6611 C.3       1 UNK         0.0000 
      6 C6          5.6077   -1.6187    3.1067 C.3       1 UNK         0.0000 
      7 H7          6.1491   -2.4093    3.6349 H         1 UNK         0.0000 
      8 H8          6.2153   -0.7091    3.1356 H         1 UNK         0.0000 
      9 H9          4.6622   -1.4362    3.6177 H         1 UNK         0.0000 
     10 C10         6.7174   -2.3397    0.9798 C.3       1 UNK         0.0000 
     11 H11         7.2060   -3.1856    1.4702 H         1 UNK         0.0000 
     12 H12         6.5634   -2.5863   -0.0747 H         1 UNK         0.0000 
     13 H13         7.3791   -1.4711    1.0478 H         1 UNK         0.0000 
     14 O14         4.8504   -0.9407    0.8736 O.3       1 UNK         0.0000 
     15 C15         3.6479   -0.4068    1.1538 C.2       1 UNK         0.0000 
     16 O16         2.9306   -0.7299    2.0940 O.2       1 UNK         0.0000 
     17 N17         3.3413    0.5684    0.2636 N.am      1 UNK         0.0000 
     18 H18         3.8645    0.6371   -0.6195 H         1 UNK         0.0000 
     19 C19         2.0623    1.2455    0.3527 C.3       1 UNK         0.0000 
     20 C20         0.9684    0.3473   -0.2467 C.2       1 UNK         0.0000 
     21 N21         0.1763   -0.2870    0.6427 N.am      1 UNK         0.0000 
     22 H22         0.4000   -0.2647    1.6322 H         1 UNK         0.0000 
     23 O23         0.8421    0.2115   -1.4641 O.2       1 UNK         0.0000 
     24 H24         1.8440    1.4198    1.4114 H         1 UNK         0.0000 
     25 C25         2.1280    2.5937   -0.3834 C.3       1 UNK         0.0000 
     26 H26         2.3765    2.4107   -1.4334 H         1 UNK         0.0000 
     27 H27         2.9398    3.1751    0.0648 H         1 UNK         0.0000 
     28 C28         0.8092    3.3147   -0.2492 C.ar      1 UNK         0.0000 
     29 C29        -0.1931    3.1481   -1.2126 C.ar      1 UNK         0.0000 
     30 C30        -1.4872    3.5969   -0.9714 C.ar      1 UNK         0.0000 
     31 H31        -2.2909    3.4287   -1.6824 H         1 UNK         0.0000 
     32 H32         0.0357    2.6110   -2.1285 H         1 UNK         0.0000 
     33 C33         0.5164    4.0507    0.9037 C.ar      1 UNK         0.0000 
     34 H34         1.2947    4.2207    1.6433 H         1 UNK         0.0000 
     35 C35        -0.7769    4.5111    1.1551 C.ar      1 UNK         0.0000 
     36 H36        -1.0247    5.0202    2.0813 H         1 UNK         0.0000 
     37 C37        -1.7790    4.2134    0.2412 C.ar      1 UNK         0.0000 
     38 O38        -3.1201    4.4119    0.5764 O.3       1 UNK         0.0000 
     39 C39        -3.7112    3.2165    0.9472 C.ar      1 UNK         0.0000 
     40 C40        -4.9558    2.8848    0.4139 C.ar      1 UNK         0.0000 
     41 C41        -5.4931    1.6268    0.6837 C.ar      1 UNK         0.0000 
     42 H42        -6.4406    1.3313    0.2419 H         1 UNK         0.0000 
     43 H43        -5.4601    3.5852   -0.2438 H         1 UNK         0.0000 
     44 C44        -3.0501    2.3454    1.8185 C.ar      1 UNK         0.0000 
     45 H45        -2.1023    2.6272    2.2614 H         1 UNK         0.0000 
     46 C46        -3.5829    1.0920    2.0616 C.ar      1 UNK         0.0000 
     47 H47        -3.0407    0.4108    2.7102 H         1 UNK         0.0000 
     48 C48        -4.7892    0.7054    1.4666 C.ar      1 UNK         0.0000 
     49 C49        -5.2729   -0.6960    1.5951 C.2       1 UNK         0.0000 
     50 O50        -6.4460   -0.9958    1.4633 O.2       1 UNK         0.0000 
     51 C51        -4.2215   -1.7877    1.8428 C.3       1 UNK         0.0000 
     52 H52        -3.8453   -1.7200    2.8686 H         1 UNK         0.0000 
     53 H53        -4.7197   -2.7518    1.7177 H         1 UNK         0.0000 
     54 N54        -3.0991   -1.6569    0.9339 N.am      1 UNK         0.0000 
     55 H55        -3.3080   -1.5559   -0.0691 H         1 UNK         0.0000 
     56 C56        -1.8396   -1.4178    1.3384 C.2       1 UNK         0.0000 
     57 O57        -1.4727   -1.3655    2.5127 O.2       1 UNK         0.0000 
     58 C58        -0.8344   -1.2189    0.1950 C.3       1 UNK         0.0000 
     59 H59        -1.3495   -0.7732   -0.6584 H         1 UNK         0.0000 
     60 C60        -0.2863   -2.5693   -0.2456 C.ar      1 UNK         0.0000 
     61 C61         0.8531   -3.1169    0.3465 C.ar      1 UNK         0.0000 
     62 H62         1.3983   -2.5494    1.0986 H         1 UNK         0.0000 
     63 C63         1.2950   -4.3830   -0.0407 C.ar      1 UNK         0.0000 
     64 H64         2.1774   -4.8115    0.4248 H         1 UNK         0.0000 
     65 C65         0.6083   -5.0988   -1.0217 C.ar      1 UNK         0.0000 
     66 H66         0.9575   -6.0818   -1.3219 H         1 UNK         0.0000 
     67 C67        -0.5230   -4.5442   -1.6219 C.ar      1 UNK         0.0000 
     68 H68        -1.0540   -5.0917   -2.3944 H         1 UNK         0.0000 
     69 C69        -0.9707   -3.2827   -1.2334 C.ar      1 UNK         0.0000 
     70 H70        -1.8493   -2.8390   -1.6987 H         1 UNK         0.0000 
     71 C71        -4.7620    1.1203   -2.8444 C.3       1 UNK         0.0000 
     72 H72        -5.6413    0.9788   -2.2151 H         1 UNK         0.0000 
     73 H73        -4.8481    0.5386   -3.7643 H         1 UNK         0.0000 
     74 H74        -4.6237    2.1823   -3.0575 H         1 UNK         0.0000 
     75 S75        -3.3464    0.5160   -1.9089 S.3       1 UNK         0.0000 
     76 C76        -2.0935    0.6408   -3.2007 C.3       1 UNK         0.0000 
     77 H77        -2.0172    1.6789   -3.5328 H         1 UNK         0.0000 
     78 H78        -2.3920   -0.0091   -4.0262 H         1 UNK         0.0000 
     79 H79        -1.1430    0.3170   -2.7665 H         1 UNK         0.0000 
     80 O80        -3.5919   -0.9993   -1.7545 O.2       1 UNK         0.0000 
     81 C81         7.0365    0.5230   -1.3922 C.3       1 UNK         0.0000 
     82 H82         6.5511    0.2719   -0.4456 H         1 UNK         0.0000 
     83 H83         8.0117    0.9876   -1.2344 H         1 UNK         0.0000 
     84 H84         7.1426   -0.3689   -2.0109 H         1 UNK         0.0000 
     85 S85         5.9672    1.6676   -2.2862 S.3       1 UNK         0.0000 
     86 C86         5.9129    2.9736   -1.0406 C.3       1 UNK         0.0000 
     87 H87         5.5616    2.5482   -0.0971 H         1 UNK         0.0000 
     88 H88         5.2181    3.7329   -1.4016 H         1 UNK         0.0000 
     89 H89         6.9108    3.4028   -0.9309 H         1 UNK         0.0000 
     90 O90         4.5736    1.0178   -2.2511 O.2       1 UNK         0.0000 
@<TRIPOS>BOND
     1    1    2 1    
     2    1    3 1    
     3    1    4 1    
     4    1    5 1    
     5    5   14 1    
     6    5   10 1    
     7    5    6 1    
     8    6    7 1    
     9    6    8 1    
    10    6    9 1    
    11   10   12 1    
    12   10   11 1    
    13   10   13 1    
    14   14   15 1    
    15   15   17 am   BACKBONE|DICT|INTERRES
    16   15   16 2    
    17   17   18 1    
    18   17   19 1    
    19   19   24 1    
    20   19   25 1    
    21   19   20 1    
    22   20   23 2    
    23   20   21 am   BACKBONE|DICT|INTERRES
    24   21   58 1    
    25   21   22 1    
    26   25   26 1    
    27   25   27 1    
    28   25   28 1    
    29   28   29 ar   
    30   28   33 ar   
    31   29   32 1    
    32   29   30 ar   
    33   30   31 1    
    34   30   37 ar   
    35   33   34 1    
    36   33   35 ar   
    37   35   37 ar   
    38   35   36 1    
    39   37   38 1    
    40   38   39 1    
    41   39   40 ar   
    42   39   44 ar   
    43   40   43 1    
    44   40   41 ar   
    45   41   42 1    
    46   41   48 ar   
    47   44   45 1    
    48   44   46 ar   
    49   46   48 ar   
    50   46   47 1    
    51   48   49 1    
    52   49   50 2    
    53   49   51 1    
    54   51   53 1    
    55   51   54 1    
    56   51   52 1    
    57   54   55 1    
    58   54   56 am   BACKBONE|DICT|INTERRES
    59   56   58 1    
    60   56   57 2    
    61   58   60 1    
    62   58   59 1    
    63   60   69 ar   
    64   60   61 ar   
    65   61   63 ar   
    66   61   62 1    
    67   63   65 ar   
    68   63   64 1    
    69   65   66 1    
    70   65   67 ar   
    71   67   68 1    
    72   67   69 ar   
    73   69   70 1    
    74   71   74 1    
    75   71   73 1    
    76   71   72 1    
    77   71   75 1    
    78   75   80 2    
    79   75   76 1    
    80   76   77 1    
    81   76   78 1    
    82   76   79 1    
    83   81   85 1    
    84   81   84 1    
    85   81   82 1    
    86   81   83 1    
    87   85   90 2    
    88   85   86 1    
    89   86   88 1    
    90   86   87 1    
    91   86   89 1    
@<TRIPOS>SUBSTRUCTURE
     1 UNK         1 GROUP             0       ****    0 ROOT    
@<TRIPOS>MOLECULE
Cpd2-2000-MEC
90   91    1
SMALL
USER_CHARGES


@<TRIPOS>ATOM
      1 C1          4.6203   -3.2440    1.2272 C.3       1 UNK         0.0000 
      2 H2          3.6982   -3.0990    1.7921 H         1 UNK         0.0000 
      3 H3          4.3761   -3.4074    0.1726 H         1 UNK         0.0000 
      4 H4          5.1277   -4.1362    1.6056 H         1 UNK         0.0000 
      5 C5          5.5489   -2.0414    1.3664 C.3       1 UNK         0.0000 
      6 C6          5.8210   -1.6803    2.8235 C.3       1 UNK         0.0000 
      7 H7          6.3789   -2.4953    3.2944 H         1 UNK         0.0000 
      8 H8          6.4296   -0.7725    2.8772 H         1 UNK         0.0000 
      9 H9          4.8926   -1.5240    3.3733 H         1 UNK         0.0000 
     10 C10         6.8583   -2.2923    0.6264 C.3       1 UNK         0.0000 
     11 H11         6.6683   -2.4819   -0.4340 H         1 UNK         0.0000 
     12 H12         7.5238   -1.4289    0.7181 H         1 UNK         0.0000 
     13 H13         7.3614   -3.1631    1.0543 H         1 UNK         0.0000 
     14 O14         4.9886   -0.8923    0.6558 O.3       1 UNK         0.0000 
     15 C15         3.7856   -0.3911    0.9911 C.2       1 UNK         0.0000 
     16 O16         3.0980   -0.7699    1.9319 O.2       1 UNK         0.0000 
     17 N17         3.4405    0.6206    0.1570 N.am      1 UNK         0.0000 
     18 H18         3.9413    0.7338   -0.7339 H         1 UNK         0.0000 
     19 C19         2.1322    1.2305    0.2851 C.3       1 UNK         0.0000 
     20 C20         1.0650    0.2927   -0.3038 C.2       1 UNK         0.0000 
     21 N21         0.1774   -0.2190    0.5726 N.am      1 UNK         0.0000 
     22 H22         0.3045   -0.0872    1.5701 H         1 UNK         0.0000 
     23 O23         1.0382    0.0387   -1.5071 O.2       1 UNK         0.0000 
     24 H24         1.9311    1.3905    1.3494 H         1 UNK         0.0000 
     25 C25         2.1157    2.5830   -0.4471 C.3       1 UNK         0.0000 
     26 H26         2.3332    2.4087   -1.5059 H         1 UNK         0.0000 
     27 H27         2.9199    3.1965   -0.0295 H         1 UNK         0.0000 
     28 C28         0.7787    3.2580   -0.2657 C.ar      1 UNK         0.0000 
     29 C29        -0.2784    2.9831   -1.1419 C.ar      1 UNK         0.0000 
     30 C30        -1.5668    3.4241   -0.8605 C.ar      1 UNK         0.0000 
     31 H31        -2.4025    3.1635   -1.5035 H         1 UNK         0.0000 
     32 H32        -0.0968    2.3747   -2.0234 H         1 UNK         0.0000 
     33 C33         0.5342    4.0675    0.8480 C.ar      1 UNK         0.0000 
     34 H34         1.3504    4.3089    1.5243 H         1 UNK         0.0000 
     35 C35        -0.7523    4.5245    1.1388 C.ar      1 UNK         0.0000 
     36 H36        -0.9570    5.1061    2.0319 H         1 UNK         0.0000 
     37 C37        -1.7974    4.1516    0.3042 C.ar      1 UNK         0.0000 
     38 O38        -3.1172    4.4157    0.6790 O.3       1 UNK         0.0000 
     39 C39        -3.7529    3.2404    1.0416 C.ar      1 UNK         0.0000 
     40 C40        -4.9385    2.8842    0.4035 C.ar      1 UNK         0.0000 
     41 C41        -5.4731    1.6192    0.6369 C.ar      1 UNK         0.0000 
     42 H42        -6.3584    1.2927    0.0999 H         1 UNK         0.0000 
     43 H43        -5.3849    3.5638   -0.3145 H         1 UNK         0.0000 
     44 C44        -3.1639    2.4024    1.9915 C.ar      1 UNK         0.0000 
     45 H45        -2.2612    2.7152    2.5049 H         1 UNK         0.0000 
     46 C46        -3.6928    1.1406    2.2026 C.ar      1 UNK         0.0000 
     47 H47        -3.1923    0.4724    2.8957 H         1 UNK         0.0000 
     48 C48        -4.8259    0.7218    1.4938 C.ar      1 UNK         0.0000 
     49 C49        -5.2651   -0.6982    1.5367 C.2       1 UNK         0.0000 
     50 O50        -6.3927   -1.0421    1.2230 O.2       1 UNK         0.0000 
     51 C51        -4.2016   -1.7547    1.8677 C.3       1 UNK         0.0000 
     52 H52        -3.8334   -1.6377    2.8906 H         1 UNK         0.0000 
     53 H53        -4.6715   -2.7360    1.7687 H         1 UNK         0.0000 
     54 N54        -3.0844   -1.6261    0.9513 N.am      1 UNK         0.0000 
     55 H55        -3.3098   -1.7188   -0.0493 H         1 UNK         0.0000 
     56 C56        -1.8405   -1.2872    1.3230 C.2       1 UNK         0.0000 
     57 O57        -1.4760   -1.1049    2.4854 O.2       1 UNK         0.0000 
     58 C58        -0.8440   -1.1557    0.1584 C.3       1 UNK         0.0000 
     59 H59        -1.3647   -0.7476   -0.7157 H         1 UNK         0.0000 
     60 C60        -0.3051   -2.5378   -0.1970 C.ar      1 UNK         0.0000 
     61 C61         0.8591   -3.0327    0.3945 C.ar      1 UNK         0.0000 
     62 H62         1.4303   -2.4050    1.0764 H         1 UNK         0.0000 
     63 C63         1.2951   -4.3247    0.0954 C.ar      1 UNK         0.0000 
     64 H64         2.1992   -4.7084    0.5583 H         1 UNK         0.0000 
     65 C65         0.5776   -5.1228   -0.7953 C.ar      1 UNK         0.0000 
     66 H66         0.9223   -6.1257   -1.0271 H         1 UNK         0.0000 
     67 C67        -0.5806   -4.6239   -1.3923 C.ar      1 UNK         0.0000 
     68 H68        -1.1393   -5.2354   -2.0941 H         1 UNK         0.0000 
     69 C69        -1.0212   -3.3354   -1.0941 C.ar      1 UNK         0.0000 
     70 H70        -1.9243   -2.9464   -1.5613 H         1 UNK         0.0000 
     71 C71         7.1381    0.7860   -1.4576 C.3       1 UNK         0.0000 
     72 H72         7.2953   -0.0711   -2.1137 H         1 UNK         0.0000 
     73 H73         6.6498    0.4696   -0.5323 H         1 UNK         0.0000 
     74 H74         8.0878    1.2876   -1.2624 H         1 UNK         0.0000 
     75 S75         6.0305    1.9200   -2.3183 S.3       1 UNK         0.0000 
     76 C76         5.8910    3.1600   -1.0133 C.3       1 UNK         0.0000 
     77 H77         6.8658    3.6270   -0.8594 H         1 UNK         0.0000 
     78 H78         5.5393    2.6734   -0.0999 H         1 UNK         0.0000 
     79 H79         5.1707    3.9048   -1.3537 H         1 UNK         0.0000 
     80 O80         4.6697    1.2041   -2.3439 O.2       1 UNK         0.0000 
     81 C81        -6.6749   -2.1063   -1.9083 C.3       1 UNK         0.0000 
     82 H82        -7.5539   -1.5683   -2.2690 H         1 UNK         0.0000 
     83 H83        -6.8017   -2.3672   -0.8567 H         1 UNK         0.0000 
     84 H84        -6.4770   -2.9931   -2.5138 H         1 UNK         0.0000 
     85 S85        -5.2437   -1.0162   -1.9970 S.3       1 UNK         0.0000 
     86 C86        -5.1667   -0.8200   -3.7860 C.3       1 UNK         0.0000 
     87 H87        -6.0663   -0.3029   -4.1248 H         1 UNK         0.0000 
     88 H88        -5.0835   -1.8089   -4.2409 H         1 UNK         0.0000 
     89 H89        -4.2841   -0.2194   -4.0064 H         1 UNK         0.0000 
     90 O90        -4.0381   -1.9139   -1.6511 O.2       1 UNK         0.0000 
@<TRIPOS>BOND
     1    1    5 1    
     2    1    4 1    
     3    1    2 1    
     4    1    3 1    
     5    5    6 1    
     6    5   10 1    
     7    5   14 1    
     8    6    8 1    
     9    6    7 1    
    10    6    9 1    
    11   10   12 1    
    12   10   13 1    
    13   10   11 1    
    14   14   15 1    
    15   15   16 2    
    16   15   17 am   BACKBONE|DICT|INTERRES
    17   17   19 1    
    18   17   18 1    
    19   19   24 1    
    20   19   20 1    
    21   19   25 1    
    22   20   21 am   BACKBONE|DICT|INTERRES
    23   20   23 2    
    24   21   22 1    
    25   21   58 1    
    26   25   28 1    
    27   25   27 1    
    28   25   26 1    
    29   28   33 ar   
    30   28   29 ar   
    31   29   30 ar   
    32   29   32 1    
    33   30   37 ar   
    34   30   31 1    
    35   33   35 ar   
    36   33   34 1    
    37   35   36 1    
    38   35   37 ar   
    39   37   38 1    
    40   38   39 1    
    41   39   44 ar   
    42   39   40 ar   
    43   40   41 ar   
    44   40   43 1    
    45   41   48 ar   
    46   41   42 1    
    47   44   46 ar   
    48   44   45 1    
    49   46   47 1    
    50   46   48 ar   
    51   48   49 1    
    52   49   51 1    
    53   49   50 2    
    54   51   52 1    
    55   51   53 1    
    56   51   54 1    
    57   54   56 am   BACKBONE|DICT|INTERRES
    58   54   55 1    
    59   56   57 2    
    60   56   58 1    
    61   58   59 1    
    62   58   60 1    
    63   60   61 ar   
    64   60   69 ar   
    65   61   62 1    
    66   61   63 ar   
    67   63   64 1    
    68   63   65 ar   
    69   65   66 1    
    70   65   67 ar   
    71   67   69 ar   
    72   67   68 1    
    73   69   70 1    
    74   71   74 1    
    75   71   73 1    
    76   71   72 1    
    77   71   75 1    
    78   75   76 1    
    79   75   80 2    
    80   76   77 1    
    81   76   78 1    
    82   76   79 1    
    83   81   83 1    
    84   81   82 1    
    85   81   84 1    
    86   81   85 1    
    87   85   90 2    
    88   85   86 1    
    89   86   87 1    
    90   86   88 1    
    91   86   89 1    
@<TRIPOS>SUBSTRUCTURE
     1 UNK         1 GROUP             0       ****    0 ROOT    
@<TRIPOS>MOLECULE
Cpd2-2500-MRC
90   91    1
SMALL
USER_CHARGES


@<TRIPOS>ATOM
      1 C1          4.2310   -3.2228    1.9548 C.3       1 UNK         0.0000 
      2 H2          4.6820   -4.0700    2.4805 H         1 UNK         0.0000 
      3 H3          3.2775   -2.9796    2.4264 H         1 UNK         0.0000 
      4 H4          4.0512   -3.5177    0.9147 H         1 UNK         0.0000 
      5 C5          5.1849   -2.0309    1.9923 C.3       1 UNK         0.0000 
      6 C6          5.3545   -1.4699    3.4027 C.3       1 UNK         0.0000 
      7 H7          4.3928   -1.2170    3.8486 H         1 UNK         0.0000 
      8 H8          5.8519   -2.2186    4.0271 H         1 UNK         0.0000 
      9 H9          5.9844   -0.5755    3.3740 H         1 UNK         0.0000 
     10 C10         6.5446   -2.4096    1.4149 C.3       1 UNK         0.0000 
     11 H11         7.0054   -3.1899    2.0267 H         1 UNK         0.0000 
     12 H12         6.4428   -2.7823    0.3924 H         1 UNK         0.0000 
     13 H13         7.2042   -1.5381    1.3975 H         1 UNK         0.0000 
     14 O14         4.7218   -0.9964    1.0790 O.3       1 UNK         0.0000 
     15 C15         3.5488   -0.3736    1.2970 C.2       1 UNK         0.0000 
     16 O16         2.7854   -0.6153    2.2218 O.2       1 UNK         0.0000 
     17 N17         3.3347    0.5894    0.3581 N.am      1 UNK         0.0000 
     18 H18         3.8126    0.4644   -0.5411 H         1 UNK         0.0000 
     19 C19         2.0438    1.2551    0.3564 C.3       1 UNK         0.0000 
     20 C20         0.9691    0.3306   -0.2417 C.2       1 UNK         0.0000 
     21 N21         0.1806   -0.3141    0.6419 N.am      1 UNK         0.0000 
     22 H22         0.3900   -0.2940    1.6357 H         1 UNK         0.0000 
     23 O23         0.8484    0.1965   -1.4575 O.2       1 UNK         0.0000 
     24 H24         1.7899    1.4729    1.3984 H         1 UNK         0.0000 
     25 C25         2.1073    2.5678   -0.4388 C.3       1 UNK         0.0000 
     26 H26         2.3155    2.3293   -1.4868 H         1 UNK         0.0000 
     27 H27         2.9358    3.1624   -0.0419 H         1 UNK         0.0000 
     28 C28         0.7920    3.2965   -0.2954 C.ar      1 UNK         0.0000 
     29 C29        -0.2631    3.0316   -1.1768 C.ar      1 UNK         0.0000 
     30 C30        -1.5496    3.4749   -0.8950 C.ar      1 UNK         0.0000 
     31 H31        -2.3873    3.2063   -1.5317 H         1 UNK         0.0000 
     32 H32        -0.0831    2.4089   -2.0475 H         1 UNK         0.0000 
     33 C33         0.5487    4.1177    0.8100 C.ar      1 UNK         0.0000 
     34 H34         1.3650    4.3579    1.4873 H         1 UNK         0.0000 
     35 C35        -0.7369    4.5782    1.0997 C.ar      1 UNK         0.0000 
     36 H36        -0.9439    5.1629    1.9905 H         1 UNK         0.0000 
     37 C37        -1.7837    4.1954    0.2722 C.ar      1 UNK         0.0000 
     38 O38        -3.1047    4.4268    0.6599 O.3       1 UNK         0.0000 
     39 C39        -3.7130    3.2426    1.0249 C.ar      1 UNK         0.0000 
     40 C40        -4.9438    2.9115    0.4596 C.ar      1 UNK         0.0000 
     41 C41        -5.4730    1.6454    0.6897 C.ar      1 UNK         0.0000 
     42 H42        -6.4018    1.3438    0.2148 H         1 UNK         0.0000 
     43 H43        -5.4310    3.6215   -0.2002 H         1 UNK         0.0000 
     44 C44        -3.0733    2.3681    1.9066 C.ar      1 UNK         0.0000 
     45 H45        -2.1304    2.6513    2.3611 H         1 UNK         0.0000 
     46 C46        -3.6049    1.1088    2.1243 C.ar      1 UNK         0.0000 
     47 H47        -3.0654    0.4225    2.7693 H         1 UNK         0.0000 
     48 C48        -4.7848    0.7172    1.4800 C.ar      1 UNK         0.0000 
     49 C49        -5.2401   -0.6963    1.5165 C.2       1 UNK         0.0000 
     50 O50        -6.3557   -1.0323    1.1523 O.2       1 UNK         0.0000 
     51 C51        -4.2100   -1.7683    1.9007 C.3       1 UNK         0.0000 
     52 H52        -3.8217   -1.6168    2.9119 H         1 UNK         0.0000 
     53 H53        -4.7155   -2.7373    1.8597 H         1 UNK         0.0000 
     54 N54        -3.0965   -1.7151    0.9754 N.am      1 UNK         0.0000 
     55 H55        -3.3349   -1.7284   -0.0212 H         1 UNK         0.0000 
     56 C56        -1.8416   -1.3925    1.3515 C.2       1 UNK         0.0000 
     57 O57        -1.4829   -1.2417    2.5145 O.2       1 UNK         0.0000 
     58 C58        -0.8545   -1.2144    0.1860 C.3       1 UNK         0.0000 
     59 H59        -1.3730   -0.7444   -0.6580 H         1 UNK         0.0000 
     60 C60        -0.3352   -2.5739   -0.2654 C.ar      1 UNK         0.0000 
     61 C61         0.7906   -3.1412    0.3336 C.ar      1 UNK         0.0000 
     62 H62         1.3388   -2.5798    1.0875 H         1 UNK         0.0000 
     63 C63         1.2157   -4.4141   -0.0480 C.ar      1 UNK         0.0000 
     64 H64         2.0851   -4.8561    0.4313 H         1 UNK         0.0000 
     65 C65         0.5253   -5.1215   -1.0323 C.ar      1 UNK         0.0000 
     66 H66         0.8572   -6.1127   -1.3265 H         1 UNK         0.0000 
     67 C67        -0.5950   -4.5493   -1.6373 C.ar      1 UNK         0.0000 
     68 H68        -1.1302   -5.0904   -2.4118 H         1 UNK         0.0000 
     69 C69        -1.0251   -3.2794   -1.2552 C.ar      1 UNK         0.0000 
     70 H70        -1.8971   -2.8270   -1.7251 H         1 UNK         0.0000 
     71 C71         4.2410   -3.2481   -2.0084 C.3       1 UNK         0.0000 
     72 H72         4.5920   -3.2311   -3.0427 H         1 UNK         0.0000 
     73 H73         3.6806   -4.1617   -1.7933 H         1 UNK         0.0000 
     74 H74         5.0864   -3.1504   -1.3264 H         1 UNK         0.0000 
     75 S75         3.1777   -1.8102   -1.7311 S.3       1 UNK         0.0000 
     76 C76         1.9934   -2.1605   -3.0467 C.3       1 UNK         0.0000 
     77 H77         1.4726   -3.0923   -2.8066 H         1 UNK         0.0000 
     78 H78         2.5367   -2.2317   -3.9920 H         1 UNK         0.0000 
     79 H79         1.2896   -1.3285   -3.0503 H         1 UNK         0.0000 
     80 O80         4.0064   -0.6121   -2.1848 O.2       1 UNK         0.0000 
     81 C81        -6.5317   -1.0077   -2.1982 C.3       1 UNK         0.0000 
     82 H82        -7.4642   -1.4010   -2.6099 H         1 UNK         0.0000 
     83 H83        -6.2015   -0.1456   -2.7792 H         1 UNK         0.0000 
     84 H84        -6.6447   -0.7487   -1.1424 H         1 UNK         0.0000 
     85 S85        -5.2437   -2.2660   -2.3543 S.3       1 UNK         0.0000 
     86 C86        -5.9296   -3.4473   -1.1674 C.3       1 UNK         0.0000 
     87 H87        -6.8376   -3.8873   -1.5868 H         1 UNK         0.0000 
     88 H88        -6.1451   -2.9276   -0.2294 H         1 UNK         0.0000 
     89 H89        -5.1751   -4.2228   -1.0239 H         1 UNK         0.0000 
     90 O90        -4.0060   -1.6719   -1.6838 O.2       1 UNK         0.0000 
@<TRIPOS>BOND
     1    1    5 1    
     2    1    4 1    
     3    1    2 1    
     4    1    3 1    
     5    5   10 1    
     6    5   14 1    
     7    5    6 1    
     8    6    9 1    
     9    6    7 1    
    10    6    8 1    
    11   10   13 1    
    12   10   12 1    
    13   10   11 1    
    14   14   15 1    
    15   15   17 am   BACKBONE|DICT|INTERRES
    16   15   16 2    
    17   17   19 1    
    18   17   18 1    
    19   19   24 1    
    20   19   20 1    
    21   19   25 1    
    22   20   23 2    
    23   20   21 am   BACKBONE|DICT|INTERRES
    24   21   58 1    
    25   21   22 1    
    26   25   26 1    
    27   25   27 1    
    28   25   28 1    
    29   28   29 ar   
    30   28   33 ar   
    31   29   32 1    
    32   29   30 ar   
    33   30   31 1    
    34   30   37 ar   
    35   33   34 1    
    36   33   35 ar   
    37   35   37 ar   
    38   35   36 1    
    39   37   38 1    
    40   38   39 1    
    41   39   40 ar   
    42   39   44 ar   
    43   40   43 1    
    44   40   41 ar   
    45   41   42 1    
    46   41   48 ar   
    47   44   45 1    
    48   44   46 ar   
    49   46   48 ar   
    50   46   47 1    
    51   48   49 1    
    52   49   50 2    
    53   49   51 1    
    54   51   54 1    
    55   51   52 1    
    56   51   53 1    
    57   54   55 1    
    58   54   56 am   BACKBONE|DICT|INTERRES
    59   56   58 1    
    60   56   57 2    
    61   58   60 1    
    62   58   59 1    
    63   60   69 ar   
    64   60   61 ar   
    65   61   63 ar   
    66   61   62 1    
    67   63   65 ar   
    68   63   64 1    
    69   65   66 1    
    70   65   67 ar   
    71   67   68 1    
    72   67   69 ar   
    73   69   70 1    
    74   71   72 1    
    75   71   73 1    
    76   71   74 1    
    77   71   75 1    
    78   75   80 2    
    79   75   76 1    
    80   76   79 1    
    81   76   78 1    
    82   76   77 1    
    83   81   82 1    
    84   81   83 1    
    85   81   84 1    
    86   81   85 1    
    87   85   86 1    
    88   85   90 2    
    89   86   87 1    
    90   86   88 1    
    91   86   89 1    
@<TRIPOS>SUBSTRUCTURE
     1 UNK         1 GROUP             0       ****    0 ROOT    
@<TRIPOS>MOLECULE
Cpd2-3000
90   91    1
SMALL
USER_CHARGES


@<TRIPOS>ATOM
      1 C1          4.3939   -3.0717    2.2310 C.3       1 UNK         0.0000 
      2 H2          3.4766   -2.7718    2.7405 H         1 UNK         0.0000 
      3 H3          4.1384   -3.5549    1.2827 H         1 UNK         0.0000 
      4 H4          4.9225   -3.8001    2.8530 H         1 UNK         0.0000 
      5 C5          5.3045   -1.8758    1.9748 C.3       1 UNK         0.0000 
      6 C6          5.6462   -1.1174    3.2536 C.3       1 UNK         0.0000 
      7 H7          4.7463   -0.8226    3.7942 H         1 UNK         0.0000 
      8 H8          6.2505   -1.7619    3.8986 H         1 UNK         0.0000 
      9 H9          6.2327   -0.2249    3.0150 H         1 UNK         0.0000 
     10 C10         6.5763   -2.3187    1.2600 C.3       1 UNK         0.0000 
     11 H11         7.1295   -3.0195    1.8905 H         1 UNK         0.0000 
     12 H12         6.3311   -2.8154    0.3165 H         1 UNK         0.0000 
     13 H13         7.2150   -1.4569    1.0480 H         1 UNK         0.0000 
     14 O14         4.6894   -0.9748    1.0014 O.3       1 UNK         0.0000 
     15 C15         3.5425   -0.3286    1.2723 C.2       1 UNK         0.0000 
     16 O16         2.8769   -0.4621    2.2931 O.2       1 UNK         0.0000 
     17 N17         3.2294    0.5184    0.2576 N.am      1 UNK         0.0000 
     18 H18         3.6914    0.3831   -0.6513 H         1 UNK         0.0000 
     19 C19         1.9786    1.2522    0.2987 C.3       1 UNK         0.0000 
     20 C20         0.8667    0.3479   -0.2549 C.2       1 UNK         0.0000 
     21 N21         0.1663   -0.3330    0.6747 N.am      1 UNK         0.0000 
     22 H22         0.4279   -0.2642    1.6531 H         1 UNK         0.0000 
     23 O23         0.6793    0.2132   -1.4655 O.2       1 UNK         0.0000 
     24 H24         1.7682    1.4762    1.3486 H         1 UNK         0.0000 
     25 C25         2.0761    2.5667   -0.4866 C.3       1 UNK         0.0000 
     26 H26         2.2541    2.3437   -1.5431 H         1 UNK         0.0000 
     27 H27         2.9335    3.1248   -0.0985 H         1 UNK         0.0000 
     28 C28         0.7900    3.3361   -0.3047 C.ar      1 UNK         0.0000 
     29 C29        -0.2280    3.2662   -1.2613 C.ar      1 UNK         0.0000 
     30 C30        -1.5048    3.7376   -0.9702 C.ar      1 UNK         0.0000 
     31 H31        -2.3162    3.6472   -1.6844 H         1 UNK         0.0000 
     32 H32        -0.0350    2.7824   -2.2146 H         1 UNK         0.0000 
     33 C33         0.5343    4.0021    0.8996 C.ar      1 UNK         0.0000 
     34 H34         1.3276    4.1020    1.6364 H         1 UNK         0.0000 
     35 C35        -0.7427    4.4713    1.2068 C.ar      1 UNK         0.0000 
     36 H36        -0.9619    4.9196    2.1708 H         1 UNK         0.0000 
     37 C37        -1.7663    4.2615    0.2910 C.ar      1 UNK         0.0000 
     38 O38        -3.0998    4.4514    0.6656 O.3       1 UNK         0.0000 
     39 C39        -3.6858    3.2357    0.9801 C.ar      1 UNK         0.0000 
     40 C40        -4.8814    2.8783    0.3578 C.ar      1 UNK         0.0000 
     41 C41        -5.4077    1.6062    0.5785 C.ar      1 UNK         0.0000 
     42 H42        -6.3118    1.2933    0.0649 H         1 UNK         0.0000 
     43 H43        -5.3548    3.5731   -0.3278 H         1 UNK         0.0000 
     44 C44        -3.0607    2.3668    1.8790 C.ar      1 UNK         0.0000 
     45 H45        -2.1492    2.6651    2.3835 H         1 UNK         0.0000 
     46 C46        -3.5829    1.0991    2.0792 C.ar      1 UNK         0.0000 
     47 H47        -3.0671    0.4247    2.7549 H         1 UNK         0.0000 
     48 C48        -4.7425    0.6939    1.4069 C.ar      1 UNK         0.0000 
     49 C49        -5.2340   -0.7090    1.5201 C.2       1 UNK         0.0000 
     50 O50        -6.3875   -1.0100    1.2711 O.2       1 UNK         0.0000 
     51 C51        -4.2193   -1.7986    1.8997 C.3       1 UNK         0.0000 
     52 H52        -3.8752   -1.6588    2.9288 H         1 UNK         0.0000 
     53 H53        -4.7325   -2.7599    1.8279 H         1 UNK         0.0000 
     54 N54        -3.0667   -1.7589    1.0206 N.am      1 UNK         0.0000 
     55 H55        -3.2230   -1.8803    0.0117 H         1 UNK         0.0000 
     56 C56        -1.8213   -1.4601    1.4307 C.2       1 UNK         0.0000 
     57 O57        -1.4917   -1.2713    2.6018 O.2       1 UNK         0.0000 
     58 C58        -0.7902   -1.3551    0.2984 C.3       1 UNK         0.0000 
     59 H59        -1.2907   -1.0324   -0.6181 H         1 UNK         0.0000 
     60 C60        -0.1501   -2.7104    0.0352 C.ar      1 UNK         0.0000 
     61 C61         0.8448   -3.2088    0.8814 C.ar      1 UNK         0.0000 
     62 H62         1.1998   -2.6071    1.7160 H         1 UNK         0.0000 
     63 C63         1.3930   -4.4685    0.6438 C.ar      1 UNK         0.0000 
     64 H64         2.1564   -4.8592    1.3094 H         1 UNK         0.0000 
     65 C65         0.9642   -5.2275   -0.4468 C.ar      1 UNK         0.0000 
     66 H66         1.3989   -6.2046   -0.6329 H         1 UNK         0.0000 
     67 C67        -0.0186   -4.7244   -1.2989 C.ar      1 UNK         0.0000 
     68 H68        -0.3489   -5.3067   -2.1534 H         1 UNK         0.0000 
     69 C69        -0.5797   -3.4699   -1.0554 C.ar      1 UNK         0.0000 
     70 H70        -1.3542   -3.0711   -1.7073 H         1 UNK         0.0000 
     71 C71        -3.9887   -0.4578   -4.0040 C.3       1 UNK         0.0000 
     72 H72        -2.9404   -0.5704   -4.2875 H         1 UNK         0.0000 
     73 H73        -4.4012    0.4832   -4.3723 H         1 UNK         0.0000 
     74 H74        -4.5803   -1.2954   -4.3740 H         1 UNK         0.0000 
     75 S75        -4.1052   -0.4830   -2.2068 S.3       1 UNK         0.0000 
     76 C76        -2.9604    0.8648   -1.8549 C.3       1 UNK         0.0000 
     77 H77        -3.3811    1.7812   -2.2729 H         1 UNK         0.0000 
     78 H78        -1.9832    0.6354   -2.2906 H         1 UNK         0.0000 
     79 H79        -2.8825    0.9604   -0.7669 H         1 UNK         0.0000 
     80 O80        -3.3588   -1.7638   -1.7822 O.2       1 UNK         0.0000 
     81 C81         2.4429   -1.0772   -3.9903 C.3       1 UNK         0.0000 
     82 H82         1.7059   -0.5480   -3.3812 H         1 UNK         0.0000 
     83 H83         2.0506   -2.0288   -4.3560 H         1 UNK         0.0000 
     84 H84         2.7761   -0.4653   -4.8292 H         1 UNK         0.0000 
     85 S85         3.8872   -1.4005   -2.9580 S.3       1 UNK         0.0000 
     86 C86         3.0418   -2.3185   -1.6523 C.3       1 UNK         0.0000 
     87 H87         3.7573   -2.4461   -0.8376 H         1 UNK         0.0000 
     88 H88         2.7354   -3.2920   -2.0434 H         1 UNK         0.0000 
     89 H89         2.1719   -1.7470   -1.3207 H         1 UNK         0.0000 
     90 O90         4.2610   -0.0389   -2.3446 O.2       1 UNK         0.0000 
@<TRIPOS>BOND
     1    1    5 1    
     2    1    3 1    
     3    1    2 1    
     4    1    4 1    
     5    5   10 1    
     6    5   14 1    
     7    5    6 1    
     8    6    9 1    
     9    6    7 1    
    10    6    8 1    
    11   10   13 1    
    12   10   12 1    
    13   10   11 1    
    14   14   15 1    
    15   15   17 am   BACKBONE|DICT|INTERRES
    16   15   16 2    
    17   17   18 1    
    18   17   19 1    
    19   19   24 1    
    20   19   20 1    
    21   19   25 1    
    22   20   23 2    
    23   20   21 am   BACKBONE|DICT|INTERRES
    24   21   58 1    
    25   21   22 1    
    26   25   26 1    
    27   25   27 1    
    28   25   28 1    
    29   28   29 ar   
    30   28   33 ar   
    31   29   32 1    
    32   29   30 ar   
    33   30   31 1    
    34   30   37 ar   
    35   33   34 1    
    36   33   35 ar   
    37   35   37 ar   
    38   35   36 1    
    39   37   38 1    
    40   38   39 1    
    41   39   40 ar   
    42   39   44 ar   
    43   40   43 1    
    44   40   41 ar   
    45   41   42 1    
    46   41   48 ar   
    47   44   45 1    
    48   44   46 ar   
    49   46   48 ar   
    50   46   47 1    
    51   48   49 1    
    52   49   50 2    
    53   49   51 1    
    54   51   54 1    
    55   51   52 1    
    56   51   53 1    
    57   54   55 1    
    58   54   56 am   BACKBONE|DICT|INTERRES
    59   56   58 1    
    60   56   57 2    
    61   58   60 1    
    62   58   59 1    
    63   60   69 ar   
    64   60   61 ar   
    65   61   63 ar   
    66   61   62 1    
    67   63   65 ar   
    68   63   64 1    
    69   65   66 1    
    70   65   67 ar   
    71   67   68 1    
    72   67   69 ar   
    73   69   70 1    
    74   71   74 1    
    75   71   72 1    
    76   71   73 1    
    77   71   75 1    
    78   75   76 1    
    79   75   80 2    
    80   76   78 1    
    81   76   77 1    
    82   76   79 1    
    83   81   83 1    
    84   81   84 1    
    85   81   82 1    
    86   81   85 1    
    87   85   86 1    
    88   85   90 2    
    89   86   88 1    
    90   86   87 1    
    91   86   89 1    
@<TRIPOS>SUBSTRUCTURE
     1 UNK         1 GROUP             0       ****    0 ROOT    
@<TRIPOS>MOLECULE
Cpd2-3500
90   91    1
SMALL
USER_CHARGES


@<TRIPOS>ATOM
      1 C1          4.6479   -2.9081    2.1954 C.3       1 UNK         0.0000 
      2 H2          3.6840   -2.7395    2.6788 H         1 UNK         0.0000 
      3 H3          4.4839   -3.3071    1.1894 H         1 UNK         0.0000 
      4 H4          5.2060   -3.6509    2.7731 H         1 UNK         0.0000 
      5 C5          5.4620   -1.6206    2.1135 C.3       1 UNK         0.0000 
      6 C6          5.6119   -0.9371    3.4693 C.3       1 UNK         0.0000 
      7 H7          4.6411   -0.7505    3.9289 H         1 UNK         0.0000 
      8 H8          6.1981   -1.5818    4.1309 H         1 UNK         0.0000 
      9 H9          6.1453    0.0114    3.3543 H         1 UNK         0.0000 
     10 C10         6.8306   -1.8951    1.5001 C.3       1 UNK         0.0000 
     11 H11         7.3944   -0.9640    1.3946 H         1 UNK         0.0000 
     12 H12         7.3943   -2.5751    2.1441 H         1 UNK         0.0000 
     13 H13         6.7219   -2.3551    0.5139 H         1 UNK         0.0000 
     14 O14         4.8570   -0.7043    1.1495 O.3       1 UNK         0.0000 
     15 C15         3.6145   -0.2260    1.3271 C.2       1 UNK         0.0000 
     16 O16         2.8836   -0.4808    2.2807 O.2       1 UNK         0.0000 
     17 N17         3.2699    0.5934    0.3080 N.am      1 UNK         0.0000 
     18 H18         3.9062    0.7260   -0.4879 H         1 UNK         0.0000 
     19 C19         1.9869    1.2666    0.3194 C.3       1 UNK         0.0000 
     20 C20         0.9179    0.3082   -0.2356 C.2       1 UNK         0.0000 
     21 N21         0.2210   -0.3736    0.6980 N.am      1 UNK         0.0000 
     22 H22         0.4926   -0.2937    1.6730 H         1 UNK         0.0000 
     23 O23         0.7416    0.1591   -1.4455 O.2       1 UNK         0.0000 
     24 H24         1.7422    1.5055    1.3599 H         1 UNK         0.0000 
     25 C25         2.0453    2.5665   -0.4954 C.3       1 UNK         0.0000 
     26 H26         2.2031    2.3197   -1.5501 H         1 UNK         0.0000 
     27 H27         2.9020    3.1478   -0.1408 H         1 UNK         0.0000 
     28 C28         0.7535    3.3252   -0.3147 C.ar      1 UNK         0.0000 
     29 C29        -0.2918    3.1803   -1.2329 C.ar      1 UNK         0.0000 
     30 C30        -1.5641    3.6577   -0.9350 C.ar      1 UNK         0.0000 
     31 H31        -2.4019    3.5002   -1.6074 H         1 UNK         0.0000 
     32 H32        -0.1189    2.6346   -2.1566 H         1 UNK         0.0000 
     33 C33         0.5271    4.0656    0.8512 C.ar      1 UNK         0.0000 
     34 H34         1.3405    4.2168    1.5566 H         1 UNK         0.0000 
     35 C35        -0.7447    4.5459    1.1638 C.ar      1 UNK         0.0000 
     36 H36        -0.9423    5.0516    2.1037 H         1 UNK         0.0000 
     37 C37        -1.7909    4.2706    0.2925 C.ar      1 UNK         0.0000 
     38 O38        -3.1136    4.4773    0.6918 O.3       1 UNK         0.0000 
     39 C39        -3.7038    3.2640    1.0077 C.ar      1 UNK         0.0000 
     40 C40        -4.9211    2.9275    0.4186 C.ar      1 UNK         0.0000 
     41 C41        -5.4431    1.6520    0.6283 C.ar      1 UNK         0.0000 
     42 H42        -6.3649    1.3524    0.1391 H         1 UNK         0.0000 
     43 H43        -5.4141    3.6394   -0.2348 H         1 UNK         0.0000 
     44 C44        -3.0528    2.3761    1.8689 C.ar      1 UNK         0.0000 
     45 H45        -2.1230    2.6632    2.3466 H         1 UNK         0.0000 
     46 C46        -3.5693    1.1049    2.0546 C.ar      1 UNK         0.0000 
     47 H47        -3.0343    0.4109    2.6956 H         1 UNK         0.0000 
     48 C48        -4.7502    0.7195    1.4087 C.ar      1 UNK         0.0000 
     49 C49        -5.2328   -0.6862    1.4898 C.2       1 UNK         0.0000 
     50 O50        -6.3955   -0.9844    1.2819 O.2       1 UNK         0.0000 
     51 C51        -4.2057   -1.7835    1.7996 C.3       1 UNK         0.0000 
     52 H52        -3.8773   -1.7032    2.8406 H         1 UNK         0.0000 
     53 H53        -4.7098   -2.7433    1.6655 H         1 UNK         0.0000 
     54 N54        -3.0365   -1.6918    0.9469 N.am      1 UNK         0.0000 
     55 H55        -3.1631   -1.7610   -0.0698 H         1 UNK         0.0000 
     56 C56        -1.7933   -1.4837    1.4147 C.2       1 UNK         0.0000 
     57 O57        -1.5027   -1.3457    2.6035 O.2       1 UNK         0.0000 
     58 C58        -0.7035   -1.4282    0.3360 C.3       1 UNK         0.0000 
     59 H59        -1.1585   -1.1677   -0.6210 H         1 UNK         0.0000 
     60 C60        -0.0561   -2.7995    0.1923 C.ar      1 UNK         0.0000 
     61 C61         1.0722   -3.1541    0.9352 C.ar      1 UNK         0.0000 
     62 H62         1.5458   -2.4254    1.5899 H         1 UNK         0.0000 
     63 C63         1.5994   -4.4417    0.8247 C.ar      1 UNK         0.0000 
     64 H64         2.4720   -4.7179    1.4088 H         1 UNK         0.0000 
     65 C65         1.0108   -5.3737   -0.0300 C.ar      1 UNK         0.0000 
     66 H66         1.4259   -6.3731   -0.1138 H         1 UNK         0.0000 
     67 C67        -0.1085   -5.0142   -0.7816 C.ar      1 UNK         0.0000 
     68 H68        -0.5643   -5.7316   -1.4571 H         1 UNK         0.0000 
     69 C69        -0.6422   -3.7310   -0.6709 C.ar      1 UNK         0.0000 
     70 H70        -1.5130   -3.4381   -1.2545 H         1 UNK         0.0000 
     71 C71         5.3080    0.2207   -4.4071 C.3       1 UNK         0.0000 
     72 H72         4.9799    0.3609   -5.4388 H         1 UNK         0.0000 
     73 H73         5.1606   -0.8163   -4.1055 H         1 UNK         0.0000 
     74 H74         6.3521    0.5136   -4.2804 H         1 UNK         0.0000 
     75 S75         4.2875    1.2382   -3.3245 S.3       1 UNK         0.0000 
     76 C76         4.7970    2.8557   -3.9364 C.3       1 UNK         0.0000 
     77 H77         4.4860    2.9600   -4.9774 H         1 UNK         0.0000 
     78 H78         5.8811    2.9406   -3.8363 H         1 UNK         0.0000 
     79 H79         4.2962    3.6030   -3.3199 H         1 UNK         0.0000 
     80 O80         4.9314    1.1198   -1.9336 O.2       1 UNK         0.0000 
     81 C81        -1.4902   -1.0377   -3.7234 C.3       1 UNK         0.0000 
     82 H82        -0.7202   -0.9741   -2.9490 H         1 UNK         0.0000 
     83 H83        -1.3539   -0.2528   -4.4708 H         1 UNK         0.0000 
     84 H84        -1.4887   -2.0157   -4.2059 H         1 UNK         0.0000 
     85 S85        -3.1136   -0.8303   -2.9630 S.3       1 UNK         0.0000 
     86 C86        -2.7848    0.7314   -2.1156 C.3       1 UNK         0.0000 
     87 H87        -2.7362    1.5165   -2.8738 H         1 UNK         0.0000 
     88 H88        -1.8394    0.6686   -1.5686 H         1 UNK         0.0000 
     89 H89        -3.6199    0.9188   -1.4361 H         1 UNK         0.0000 
     90 O90        -3.1772   -1.9027   -1.8606 O.2       1 UNK         0.0000 
@<TRIPOS>BOND
     1    1    3 1    
     2    1    2 1    
     3    1    4 1    
     4    1    5 1    
     5    5   10 1    
     6    5   14 1    
     7    5    6 1    
     8    6    7 1    
     9    6    8 1    
    10    6    9 1    
    11   10   13 1    
    12   10   11 1    
    13   10   12 1    
    14   14   15 1    
    15   15   17 am   BACKBONE|DICT|INTERRES
    16   15   16 2    
    17   17   18 1    
    18   17   19 1    
    19   19   24 1    
    20   19   25 1    
    21   19   20 1    
    22   20   23 2    
    23   20   21 am   BACKBONE|DICT|INTERRES
    24   21   58 1    
    25   21   22 1    
    26   25   26 1    
    27   25   27 1    
    28   25   28 1    
    29   28   29 ar   
    30   28   33 ar   
    31   29   32 1    
    32   29   30 ar   
    33   30   31 1    
    34   30   37 ar   
    35   33   34 1    
    36   33   35 ar   
    37   35   37 ar   
    38   35   36 1    
    39   37   38 1    
    40   38   39 1    
    41   39   40 ar   
    42   39   44 ar   
    43   40   41 ar   
    44   40   43 1    
    45   41   42 1    
    46   41   48 ar   
    47   44   46 ar   
    48   44   45 1    
    49   46   48 ar   
    50   46   47 1    
    51   48   49 1    
    52   49   50 2    
    53   49   51 1    
    54   51   53 1    
    55   51   54 1    
    56   51   52 1    
    57   54   55 1    
    58   54   56 am   BACKBONE|DICT|INTERRES
    59   56   58 1    
    60   56   57 2    
    61   58   60 1    
    62   58   59 1    
    63   60   69 ar   
    64   60   61 ar   
    65   61   63 ar   
    66   61   62 1    
    67   63   65 ar   
    68   63   64 1    
    69   65   66 1    
    70   65   67 ar   
    71   67   68 1    
    72   67   69 ar   
    73   69   70 1    
    74   71   73 1    
    75   71   72 1    
    76   71   74 1    
    77   71   75 1    
    78   75   76 1    
    79   75   80 2    
    80   76   77 1    
    81   76   78 1    
    82   76   79 1    
    83   81   83 1    
    84   81   84 1    
    85   81   82 1    
    86   81   85 1    
    87   85   86 1    
    88   85   90 2    
    89   86   87 1    
    90   86   88 1    
    91   86   89 1    
@<TRIPOS>SUBSTRUCTURE
     1 UNK         1 GROUP             0       ****    0 ROOT    
@<TRIPOS>MOLECULE
Cpd2-4000
90   91    1
SMALL
USER_CHARGES


@<TRIPOS>ATOM
      1 C1          4.5275   -2.9894    2.2621 C.3       1 UNK         0.0000 
      2 H2          5.0848   -3.6908    2.8899 H         1 UNK         0.0000 
      3 H3          3.6071   -2.7089    2.7772 H         1 UNK         0.0000 
      4 H4          4.2776   -3.4949    1.3241 H         1 UNK         0.0000 
      5 C5          5.3976   -1.7706    1.9759 C.3       1 UNK         0.0000 
      6 C6          5.7335   -0.9825    3.2381 C.3       1 UNK         0.0000 
      7 H7          6.3682   -1.5975    3.8826 H         1 UNK         0.0000 
      8 H8          6.2866   -0.0751    2.9775 H         1 UNK         0.0000 
      9 H9          4.8328   -0.7094    3.7886 H         1 UNK         0.0000 
     10 C10         6.6717   -2.1855    1.2487 C.3       1 UNK         0.0000 
     11 H11         7.2817   -1.3083    1.0165 H         1 UNK         0.0000 
     12 H12         7.2541   -2.8612    1.8805 H         1 UNK         0.0000 
     13 H13         6.4276   -2.7018    0.3156 H         1 UNK         0.0000 
     14 O14         4.7409   -0.9041    0.9981 O.3       1 UNK         0.0000 
     15 C15         3.5841   -0.2810    1.2786 C.2       1 UNK         0.0000 
     16 O16         2.9323   -0.4209    2.3076 O.2       1 UNK         0.0000 
     17 N17         3.2408    0.5505    0.2612 N.am      1 UNK         0.0000 
     18 H18         3.6960    0.4197   -0.6517 H         1 UNK         0.0000 
     19 C19         1.9810    1.2680    0.3118 C.3       1 UNK         0.0000 
     20 C20         0.8793    0.3381   -0.2170 C.2       1 UNK         0.0000 
     21 N21         0.2121   -0.3673    0.7179 N.am      1 UNK         0.0000 
     22 H22         0.4835   -0.2911    1.6932 H         1 UNK         0.0000 
     23 O23         0.6722    0.2019   -1.4260 O.2       1 UNK         0.0000 
     24 H24         1.7800    1.5049    1.3608 H         1 UNK         0.0000 
     25 C25         2.0559    2.5694   -0.4986 C.3       1 UNK         0.0000 
     26 H26         2.2274    2.3259   -1.5517 H         1 UNK         0.0000 
     27 H27         2.9125    3.1412   -0.1296 H         1 UNK         0.0000 
     28 C28         0.7671    3.3349   -0.3211 C.ar      1 UNK         0.0000 
     29 C29        -0.2740    3.2037   -1.2464 C.ar      1 UNK         0.0000 
     30 C30        -1.5480    3.6761   -0.9477 C.ar      1 UNK         0.0000 
     31 H31        -2.3826    3.5262   -1.6259 H         1 UNK         0.0000 
     32 H32        -0.0981    2.6687   -2.1757 H         1 UNK         0.0000 
     33 C33         0.5349    4.0610    0.8528 C.ar      1 UNK         0.0000 
     34 H34         1.3446    4.2027    1.5644 H         1 UNK         0.0000 
     35 C35        -0.7384    4.5378    1.1656 C.ar      1 UNK         0.0000 
     36 H36        -0.9400    5.0317    2.1109 H         1 UNK         0.0000 
     37 C37        -1.7808    4.2721    0.2869 C.ar      1 UNK         0.0000 
     38 O38        -3.1055    4.4707    0.6835 O.3       1 UNK         0.0000 
     39 C39        -3.6920    3.2551    0.9973 C.ar      1 UNK         0.0000 
     40 C40        -4.9134    2.9213    0.4146 C.ar      1 UNK         0.0000 
     41 C41        -5.4368    1.6468    0.6255 C.ar      1 UNK         0.0000 
     42 H42        -6.3627    1.3502    0.1419 H         1 UNK         0.0000 
     43 H43        -5.4092    3.6356   -0.2341 H         1 UNK         0.0000 
     44 C44        -3.0372    2.3638    1.8519 C.ar      1 UNK         0.0000 
     45 H45        -2.1034    2.6470    2.3240 H         1 UNK         0.0000 
     46 C46        -3.5566    1.0941    2.0404 C.ar      1 UNK         0.0000 
     47 H47        -3.0211    0.3997    2.6806 H         1 UNK         0.0000 
     48 C48        -4.7427    0.7120    1.4021 C.ar      1 UNK         0.0000 
     49 C49        -5.2323   -0.6909    1.4908 C.2       1 UNK         0.0000 
     50 O50        -6.3968   -0.9839    1.2859 O.2       1 UNK         0.0000 
     51 C51        -4.2117   -1.7926    1.8067 C.3       1 UNK         0.0000 
     52 H52        -3.8848   -1.7094    2.8480 H         1 UNK         0.0000 
     53 H53        -4.7203   -2.7504    1.6758 H         1 UNK         0.0000 
     54 N54        -3.0402   -1.7084    0.9566 N.am      1 UNK         0.0000 
     55 H55        -3.1662   -1.7584   -0.0608 H         1 UNK         0.0000 
     56 C56        -1.7976   -1.5004    1.4260 C.2       1 UNK         0.0000 
     57 O57        -1.5038   -1.3770    2.6154 O.2       1 UNK         0.0000 
     58 C58        -0.7168   -1.4163    0.3422 C.3       1 UNK         0.0000 
     59 H59        -1.1830   -1.1293   -0.6012 H         1 UNK         0.0000 
     60 C60        -0.0536   -2.7718    0.1442 C.ar      1 UNK         0.0000 
     61 C61        -0.5103   -3.6052   -0.8805 C.ar      1 UNK         0.0000 
     62 H62        -1.3218   -3.2629   -1.5194 H         1 UNK         0.0000 
     63 C63         0.0657   -4.8615   -1.0706 C.ar      1 UNK         0.0000 
     64 H64        -0.2871   -5.5007   -1.8740 H         1 UNK         0.0000 
     65 C65         1.0914   -5.2941   -0.2304 C.ar      1 UNK         0.0000 
     66 H66         1.5380   -6.2729   -0.3740 H         1 UNK         0.0000 
     67 C67         1.5449   -4.4631    0.7952 C.ar      1 UNK         0.0000 
     68 H68         2.3393   -4.8004    1.4534 H         1 UNK         0.0000 
     69 C69         0.9822   -3.2002    0.9788 C.ar      1 UNK         0.0000 
     70 H70         1.3595   -2.5441    1.7609 H         1 UNK         0.0000 
     71 C71         2.4117   -1.0622   -3.9721 C.3       1 UNK         0.0000 
     72 H72         2.7378   -0.4828   -4.8363 H         1 UNK         0.0000 
     73 H73         1.7002   -0.4981   -3.3635 H         1 UNK         0.0000 
     74 H74         1.9913   -2.0164   -4.2981 H         1 UNK         0.0000 
     75 S75         3.8685   -1.3785   -2.9548 S.3       1 UNK         0.0000 
     76 C76         3.0396   -2.2902   -1.6336 C.3       1 UNK         0.0000 
     77 H77         3.7604   -2.3989   -0.8204 H         1 UNK         0.0000 
     78 H78         2.7422   -3.2724   -2.0097 H         1 UNK         0.0000 
     79 H79         2.1654   -1.7237   -1.3059 H         1 UNK         0.0000 
     80 O80         4.2439   -0.0121   -2.3533 O.2       1 UNK         0.0000 
     81 C81        -1.4573   -1.0310   -3.7104 C.3       1 UNK         0.0000 
     82 H82        -1.4524   -2.0049   -4.2014 H         1 UNK         0.0000 
     83 H83        -0.7098   -0.9833   -2.9131 H         1 UNK         0.0000 
     84 H84        -1.2892   -0.2403   -4.4453 H         1 UNK         0.0000 
     85 S85        -3.0959   -0.8098   -2.9851 S.3       1 UNK         0.0000 
     86 C86        -2.7802    0.7637   -2.1548 C.3       1 UNK         0.0000 
     87 H87        -2.7203    1.5402   -2.9212 H         1 UNK         0.0000 
     88 H88        -1.8428    0.7072   -1.5936 H         1 UNK         0.0000 
     89 H89        -3.6258    0.9578   -1.4902 H         1 UNK         0.0000 
     90 O90        -3.1776   -1.8650   -1.8677 O.2       1 UNK         0.0000 
@<TRIPOS>BOND
     1    1    5 1    
     2    1    4 1    
     3    1    2 1    
     4    1    3 1    
     5    5   10 1    
     6    5   14 1    
     7    5    6 1    
     8    6    8 1    
     9    6    7 1    
    10    6    9 1    
    11   10   11 1    
    12   10   13 1    
    13   10   12 1    
    14   14   15 1    
    15   15   17 am   BACKBONE|DICT|INTERRES
    16   15   16 2    
    17   17   19 1    
    18   17   18 1    
    19   19   24 1    
    20   19   20 1    
    21   19   25 1    
    22   20   23 2    
    23   20   21 am   BACKBONE|DICT|INTERRES
    24   21   58 1    
    25   21   22 1    
    26   25   26 1    
    27   25   27 1    
    28   25   28 1    
    29   28   29 ar   
    30   28   33 ar   
    31   29   32 1    
    32   29   30 ar   
    33   30   31 1    
    34   30   37 ar   
    35   33   34 1    
    36   33   35 ar   
    37   35   37 ar   
    38   35   36 1    
    39   37   38 1    
    40   38   39 1    
    41   39   40 ar   
    42   39   44 ar   
    43   40   43 1    
    44   40   41 ar   
    45   41   42 1    
    46   41   48 ar   
    47   44   45 1    
    48   44   46 ar   
    49   46   48 ar   
    50   46   47 1    
    51   48   49 1    
    52   49   50 2    
    53   49   51 1    
    54   51   54 1    
    55   51   52 1    
    56   51   53 1    
    57   54   55 1    
    58   54   56 am   BACKBONE|DICT|INTERRES
    59   56   58 1    
    60   56   57 2    
    61   58   60 1    
    62   58   59 1    
    63   60   61 ar   
    64   60   69 ar   
    65   61   63 ar   
    66   61   62 1    
    67   63   64 1    
    68   63   65 ar   
    69   65   66 1    
    70   65   67 ar   
    71   67   68 1    
    72   67   69 ar   
    73   69   70 1    
    74   71   74 1    
    75   71   72 1    
    76   71   73 1    
    77   71   75 1    
    78   75   76 1    
    79   75   80 2    
    80   76   78 1    
    81   76   77 1    
    82   76   79 1    
    83   81   82 1    
    84   81   84 1    
    85   81   83 1    
    86   81   85 1    
    87   85   86 1    
    88   85   90 2    
    89   86   87 1    
    90   86   88 1    
    91   86   89 1    
@<TRIPOS>SUBSTRUCTURE
     1 UNK         1 GROUP             0       ****    0 ROOT    
@<TRIPOS>MOLECULE
Cpd2-4500
90   91    1
SMALL
USER_CHARGES


@<TRIPOS>ATOM
      1 C1          4.3333   -3.3099    1.6098 C.3       1 UNK         0.0000 
      2 H2          4.0120   -3.5897    0.6013 H         1 UNK         0.0000 
      3 H3          4.8269   -4.1738    2.0648 H         1 UNK         0.0000 
      4 H4          3.4558   -3.0507    2.2044 H         1 UNK         0.0000 
      5 C5          5.3189   -2.1482    1.5369 C.3       1 UNK         0.0000 
      6 C6          5.7182   -1.6332    2.9163 C.3       1 UNK         0.0000 
      7 H7          4.8425   -1.3625    3.5069 H         1 UNK         0.0000 
      8 H8          6.2713   -2.4165    3.4428 H         1 UNK         0.0000 
      9 H9          6.3704   -0.7603    2.8166 H         1 UNK         0.0000 
     10 C10         6.5543   -2.5467    0.7374 C.3       1 UNK         0.0000 
     11 H11         7.2392   -1.6992    0.6465 H         1 UNK         0.0000 
     12 H12         7.0735   -3.3651    1.2430 H         1 UNK         0.0000 
     13 H13         6.2713   -2.8791   -0.2658 H         1 UNK         0.0000 
     14 O14         4.7552   -1.0633    0.7363 O.3       1 UNK         0.0000 
     15 C15         3.6307   -0.4309    1.1104 C.2       1 UNK         0.0000 
     16 O16         2.9784   -0.6742    2.1182 O.2       1 UNK         0.0000 
     17 N17         3.3248    0.5482    0.2170 N.am      1 UNK         0.0000 
     18 H18         3.7359    0.4855   -0.7224 H         1 UNK         0.0000 
     19 C19         2.0614    1.2524    0.3364 C.3       1 UNK         0.0000 
     20 C20         0.9492    0.3624   -0.2349 C.2       1 UNK         0.0000 
     21 N21         0.1722   -0.2749    0.6634 N.am      1 UNK         0.0000 
     22 H22         0.3880   -0.2350    1.6539 H         1 UNK         0.0000 
     23 O23         0.8132    0.2118   -1.4515 O.2       1 UNK         0.0000 
     24 H24         1.8758    1.4344    1.3993 H         1 UNK         0.0000 
     25 C25         2.1261    2.5918   -0.4140 C.3       1 UNK         0.0000 
     26 H26         2.3463    2.3900   -1.4669 H         1 UNK         0.0000 
     27 H27         2.9519    3.1713    0.0092 H         1 UNK         0.0000 
     28 C28         0.8121    3.3188   -0.2656 C.ar      1 UNK         0.0000 
     29 C29        -0.1974    3.1586   -1.2225 C.ar      1 UNK         0.0000 
     30 C30        -1.4899    3.6049   -0.9691 C.ar      1 UNK         0.0000 
     31 H31        -2.2972    3.4427   -1.6768 H         1 UNK         0.0000 
     32 H32         0.0244    2.6284   -2.1440 H         1 UNK         0.0000 
     33 C33         0.5271    4.0462    0.8947 C.ar      1 UNK         0.0000 
     34 H34         1.3103    4.2112    1.6304 H         1 UNK         0.0000 
     35 C35        -0.7649    4.5040    1.1587 C.ar      1 UNK         0.0000 
     36 H36        -1.0060    5.0070    2.0899 H         1 UNK         0.0000 
     37 C37        -1.7735    4.2132    0.2495 C.ar      1 UNK         0.0000 
     38 O38        -3.1124    4.4122    0.5932 O.3       1 UNK         0.0000 
     39 C39        -3.7055    3.2150    0.9545 C.ar      1 UNK         0.0000 
     40 C40        -4.9478    2.8855    0.4147 C.ar      1 UNK         0.0000 
     41 C41        -5.4861    1.6264    0.6768 C.ar      1 UNK         0.0000 
     42 H42        -6.4324    1.3334    0.2311 H         1 UNK         0.0000 
     43 H43        -5.4502    3.5889   -0.2412 H         1 UNK         0.0000 
     44 C44        -3.0480    2.3401    1.8246 C.ar      1 UNK         0.0000 
     45 H45        -2.1023    2.6209    2.2729 H         1 UNK         0.0000 
     46 C46        -3.5820    1.0856    2.0609 C.ar      1 UNK         0.0000 
     47 H47        -3.0438    0.4034    2.7114 H         1 UNK         0.0000 
     48 C48        -4.7854    0.7012    1.4585 C.ar      1 UNK         0.0000 
     49 C49        -5.2714   -0.7003    1.5792 C.2       1 UNK         0.0000 
     50 O50        -6.4434   -0.9981    1.4334 O.2       1 UNK         0.0000 
     51 C51        -4.2257   -1.7955    1.8376 C.3       1 UNK         0.0000 
     52 H52        -3.8580   -1.7265    2.8664 H         1 UNK         0.0000 
     53 H53        -4.7269   -2.7578    1.7109 H         1 UNK         0.0000 
     54 N54        -3.0945   -1.6731    0.9383 N.am      1 UNK         0.0000 
     55 H55        -3.2897   -1.5875   -0.0689 H         1 UNK         0.0000 
     56 C56        -1.8408   -1.4211    1.3529 C.2       1 UNK         0.0000 
     57 O57        -1.4842   -1.3568    2.5299 O.2       1 UNK         0.0000 
     58 C58        -0.8307   -1.2203    0.2171 C.3       1 UNK         0.0000 
     59 H59        -1.3421   -0.7855   -0.6436 H         1 UNK         0.0000 
     60 C60        -0.2511   -2.5595   -0.2118 C.ar      1 UNK         0.0000 
     61 C61        -0.7108   -3.1609   -1.3852 C.ar      1 UNK         0.0000 
     62 H62        -1.4633   -2.6511   -1.9840 H         1 UNK         0.0000 
     63 C63        -0.2067   -4.4003   -1.7799 C.ar      1 UNK         0.0000 
     64 H64        -0.5597   -4.8596   -2.6980 H         1 UNK         0.0000 
     65 C65         0.7512   -5.0455   -0.9972 C.ar      1 UNK         0.0000 
     66 H66         1.1431   -6.0107   -1.3023 H         1 UNK         0.0000 
     67 C67         1.2096   -4.4449    0.1767 C.ar      1 UNK         0.0000 
     68 H68         1.9548   -4.9454    0.7874 H         1 UNK         0.0000 
     69 C69         0.7149   -3.2009    0.5675 C.ar      1 UNK         0.0000 
     70 H70         1.0896   -2.7195    1.4687 H         1 UNK         0.0000 
     71 C71        -4.7934    1.0350   -2.8341 C.3       1 UNK         0.0000 
     72 H72        -4.8617    0.4595   -3.7594 H         1 UNK         0.0000 
     73 H73        -4.7067    2.1044   -3.0364 H         1 UNK         0.0000 
     74 H74        -5.6593    0.8455   -2.1988 H         1 UNK         0.0000 
     75 S75        -3.3451    0.4842   -1.9158 S.3       1 UNK         0.0000 
     76 C76        -2.1067    0.6685   -3.2141 C.3       1 UNK         0.0000 
     77 H77        -2.0734    1.7113   -3.5382 H         1 UNK         0.0000 
     78 H78        -2.3836    0.0135   -4.0433 H         1 UNK         0.0000 
     79 H79        -1.1430    0.3771   -2.7856 H         1 UNK         0.0000 
     80 O80        -3.5260   -1.0407   -1.7707 O.2       1 UNK         0.0000 
     81 C81         2.9759   -2.1464   -2.0014 C.3       1 UNK         0.0000 
     82 H82         2.2983   -1.7801   -1.2293 H         1 UNK         0.0000 
     83 H83         3.9606   -2.3698   -1.5828 H         1 UNK         0.0000 
     84 H84         2.5361   -3.0236   -2.4829 H         1 UNK         0.0000 
     85 S85         3.1638   -0.8322   -3.2247 S.3       1 UNK         0.0000 
     86 C86         4.3374   -1.6856   -4.2991 C.3       1 UNK         0.0000 
     87 H87         3.8505   -2.5561   -4.7430 H         1 UNK         0.0000 
     88 H88         5.2067   -1.9797   -3.7069 H         1 UNK         0.0000 
     89 H89         4.6285   -0.9828   -5.0801 H         1 UNK         0.0000 
     90 O90         4.0022    0.2601   -2.5378 O.2       1 UNK         0.0000 
@<TRIPOS>BOND
     1    1    5 1    
     2    1    2 1    
     3    1    3 1    
     4    1    4 1    
     5    5   10 1    
     6    5   14 1    
     7    5    6 1    
     8    6    9 1    
     9    6    7 1    
    10    6    8 1    
    11   10   11 1    
    12   10   13 1    
    13   10   12 1    
    14   14   15 1    
    15   15   17 am   BACKBONE|DICT|INTERRES
    16   15   16 2    
    17   17   18 1    
    18   17   19 1    
    19   19   24 1    
    20   19   20 1    
    21   19   25 1    
    22   20   23 2    
    23   20   21 am   BACKBONE|DICT|INTERRES
    24   21   58 1    
    25   21   22 1    
    26   25   26 1    
    27   25   27 1    
    28   25   28 1    
    29   28   29 ar   
    30   28   33 ar   
    31   29   32 1    
    32   29   30 ar   
    33   30   31 1    
    34   30   37 ar   
    35   33   34 1    
    36   33   35 ar   
    37   35   37 ar   
    38   35   36 1    
    39   37   38 1    
    40   38   39 1    
    41   39   40 ar   
    42   39   44 ar   
    43   40   43 1    
    44   40   41 ar   
    45   41   42 1    
    46   41   48 ar   
    47   44   45 1    
    48   44   46 ar   
    49   46   48 ar   
    50   46   47 1    
    51   48   49 1    
    52   49   50 2    
    53   49   51 1    
    54   51   53 1    
    55   51   54 1    
    56   51   52 1    
    57   54   55 1    
    58   54   56 am   BACKBONE|DICT|INTERRES
    59   56   58 1    
    60   56   57 2    
    61   58   60 1    
    62   58   59 1    
    63   60   61 ar   
    64   60   69 ar   
    65   61   63 ar   
    66   61   62 1    
    67   63   64 1    
    68   63   65 ar   
    69   65   66 1    
    70   65   67 ar   
    71   67   68 1    
    72   67   69 ar   
    73   69   70 1    
    74   71   73 1    
    75   71   72 1    
    76   71   74 1    
    77   71   75 1    
    78   75   76 1    
    79   75   80 2    
    80   76   77 1    
    81   76   78 1    
    82   76   79 1    
    83   81   84 1    
    84   81   85 1    
    85   81   82 1    
    86   81   83 1    
    87   85   86 1    
    88   85   90 2    
    89   86   87 1    
    90   86   89 1    
    91   86   88 1    
@<TRIPOS>SUBSTRUCTURE
     1 UNK         1 GROUP             0       ****    0 ROOT    
@<TRIPOS>MOLECULE
Cpd2-5000
90   91    1
SMALL
USER_CHARGES


@<TRIPOS>ATOM
      1 C1          5.9335   -2.3604    3.1138 C.3       1 UNK         0.0000 
      2 H2          6.5412   -1.4608    3.2447 H         1 UNK         0.0000 
      3 H3          6.2637   -3.1154    3.8319 H         1 UNK         0.0000 
      4 H4          6.0904   -2.7468    2.1023 H         1 UNK         0.0000 
      5 C5          4.4592   -2.0442    3.3390 C.3       1 UNK         0.0000 
      6 C6          3.6094   -3.2938    3.1373 C.3       1 UNK         0.0000 
      7 H7          2.5465   -3.0713    3.2504 H         1 UNK         0.0000 
      8 H8          3.7847   -3.7112    2.1410 H         1 UNK         0.0000 
      9 H9          3.8919   -4.0474    3.8783 H         1 UNK         0.0000 
     10 C10         4.2528   -1.4168    4.7152 C.3       1 UNK         0.0000 
     11 H11         4.6633   -2.0884    5.4747 H         1 UNK         0.0000 
     12 H12         4.7869   -0.4636    4.7765 H         1 UNK         0.0000 
     13 H13         3.1958   -1.2495    4.9259 H         1 UNK         0.0000 
     14 O14         4.1761   -1.0740    2.2825 O.3       1 UNK         0.0000 
     15 C15         2.9761   -0.4758    2.1887 C.2       1 UNK         0.0000 
     16 O16         2.0120   -0.7130    2.9098 O.2       1 UNK         0.0000 
     17 N17         2.9807    0.4499    1.1987 N.am      1 UNK         0.0000 
     18 H18         3.7287    0.4088    0.4938 H         1 UNK         0.0000 
     19 C19         1.7599    1.1690    0.8847 C.3       1 UNK         0.0000 
     20 C20         0.9211    0.3163   -0.0768 C.2       1 UNK         0.0000 
     21 N21        -0.1365   -0.3123    0.4747 N.am      1 UNK         0.0000 
     22 H22        -0.2728   -0.2039    1.4842 H         1 UNK         0.0000 
     23 O23         1.2470    0.1824   -1.2584 O.2       1 UNK         0.0000 
     24 H24         1.2073    1.3019    1.8206 H         1 UNK         0.0000 
     25 C25         2.0647    2.5407    0.2663 C.3       1 UNK         0.0000 
     26 H26         2.5569    2.3998   -0.7009 H         1 UNK         0.0000 
     27 H27         2.7513    3.0690    0.9345 H         1 UNK         0.0000 
     28 C28         0.7629    3.2891    0.1174 C.ar      1 UNK         0.0000 
     29 C29         0.0485    3.2787   -1.0833 C.ar      1 UNK         0.0000 
     30 C30        -1.2733    3.7258   -1.1336 C.ar      1 UNK         0.0000 
     31 H31        -1.8517    3.6628   -2.0497 H         1 UNK         0.0000 
     32 H32         0.5062    2.8572   -1.9739 H         1 UNK         0.0000 
     33 C33         0.1669    3.8587    1.2492 C.ar      1 UNK         0.0000 
     34 H34         0.7218    3.9025    2.1835 H         1 UNK         0.0000 
     35 C35        -1.1493    4.3045    1.2149 C.ar      1 UNK         0.0000 
     36 H36        -1.6335    4.6876    2.1074 H         1 UNK         0.0000 
     37 C37        -1.8756    4.1778    0.0337 C.ar      1 UNK         0.0000 
     38 O38        -3.2616    4.3838    0.0665 O.3       1 UNK         0.0000 
     39 C39        -3.8420    3.2434    0.6148 C.ar      1 UNK         0.0000 
     40 C40        -3.9524    2.0966   -0.1715 C.ar      1 UNK         0.0000 
     41 C41        -4.2723    0.8899    0.4344 C.ar      1 UNK         0.0000 
     42 H42        -4.3039   -0.0159   -0.1654 H         1 UNK         0.0000 
     43 H43        -3.7168    2.1448   -1.2294 H         1 UNK         0.0000 
     44 C44        -4.1907    3.2328    1.9629 C.ar      1 UNK         0.0000 
     45 H45        -4.1262    4.1480    2.5418 H         1 UNK         0.0000 
     46 C46        -4.5280    2.0213    2.5598 C.ar      1 UNK         0.0000 
     47 H47        -4.7368    1.9725    3.6242 H         1 UNK         0.0000 
     48 C48        -4.5125    0.8390    1.8133 C.ar      1 UNK         0.0000 
     49 C49        -4.6395   -0.4602    2.5282 C.2       1 UNK         0.0000 
     50 O50        -5.2391   -0.5610    3.5844 O.2       1 UNK         0.0000 
     51 C51        -3.9413   -1.6870    1.9361 C.3       1 UNK         0.0000 
     52 H52        -3.9087   -2.4453    2.7229 H         1 UNK         0.0000 
     53 H53        -4.5386   -2.0774    1.1056 H         1 UNK         0.0000 
     54 N54        -2.6096   -1.4017    1.4354 N.am      1 UNK         0.0000 
     55 H55        -1.9781   -0.9105    2.0748 H         1 UNK         0.0000 
     56 C56        -2.2743   -1.6227    0.1496 C.2       1 UNK         0.0000 
     57 O57        -3.0505   -2.1084   -0.6742 O.2       1 UNK         0.0000 
     58 C58        -0.8447   -1.3061   -0.3115 C.3       1 UNK         0.0000 
     59 H59        -0.9621   -0.9006   -1.3197 H         1 UNK         0.0000 
     60 C60        -0.0718   -2.6172   -0.4160 C.ar      1 UNK         0.0000 
     61 C61         0.5877   -3.1436    0.6979 C.ar      1 UNK         0.0000 
     62 H62         0.5999   -2.5866    1.6336 H         1 UNK         0.0000 
     63 C63         1.2493   -4.3681    0.6038 C.ar      1 UNK         0.0000 
     64 H64         1.7472   -4.7809    1.4751 H         1 UNK         0.0000 
     65 C65         1.2741   -5.0623   -0.6066 C.ar      1 UNK         0.0000 
     66 H66         1.7966   -6.0110   -0.6787 H         1 UNK         0.0000 
     67 C67         0.6334   -4.5283   -1.7245 C.ar      1 UNK         0.0000 
     68 H68         0.6596   -5.0562   -2.6726 H         1 UNK         0.0000 
     69 C69        -0.0417   -3.3117   -1.6263 C.ar      1 UNK         0.0000 
     70 H70        -0.5445   -2.8949   -2.4950 H         1 UNK         0.0000 
     71 C71        -0.2850   -1.7227    4.7241 C.3       1 UNK         0.0000 
     72 H72        -0.0532   -1.9299    5.7710 H         1 UNK         0.0000 
     73 H73         0.5422   -2.0311    4.0850 H         1 UNK         0.0000 
     74 H74        -1.2225   -2.1992    4.4276 H         1 UNK         0.0000 
     75 S75        -0.4501    0.0588    4.5100 S.3       1 UNK         0.0000 
     76 C76        -1.8888    0.3112    5.5679 C.3       1 UNK         0.0000 
     77 H77        -1.6208    0.0795    6.6004 H         1 UNK         0.0000 
     78 H78        -2.6983   -0.3318    5.2142 H         1 UNK         0.0000 
     79 H79        -2.1695    1.3612    5.4796 H         1 UNK         0.0000 
     80 O80        -1.0216    0.2491    3.0878 O.2       1 UNK         0.0000 
     81 C81         3.8096   -0.7500   -3.1583 C.3       1 UNK         0.0000 
     82 H82         2.8809   -0.2983   -2.8013 H         1 UNK         0.0000 
     83 H83         3.6184   -1.6682   -3.7183 H         1 UNK         0.0000 
     84 H84         4.3803   -0.0521   -3.7717 H         1 UNK         0.0000 
     85 S85         4.8214   -1.1492   -1.7188 S.3       1 UNK         0.0000 
     86 C86         3.6262   -2.2114   -0.8781 C.3       1 UNK         0.0000 
     87 H87         2.6612   -1.7002   -0.8295 H         1 UNK         0.0000 
     88 H88         4.0192   -2.4006    0.1227 H         1 UNK         0.0000 
     89 H89         3.5409   -3.1484   -1.4336 H         1 UNK         0.0000 
     90 O90         4.8943    0.1506   -0.8970 O.2       1 UNK         0.0000 
@<TRIPOS>BOND
     1    1    3 1    
     2    1    2 1    
     3    1    4 1    
     4    1    5 1    
     5    5   10 1    
     6    5    6 1    
     7    5   14 1    
     8    6    9 1    
     9    6    7 1    
    10    6    8 1    
    11   10   11 1    
    12   10   12 1    
    13   10   13 1    
    14   14   15 1    
    15   15   16 2    
    16   15   17 am   BACKBONE|DICT|INTERRES
    17   17   18 1    
    18   17   19 1    
    19   19   24 1    
    20   19   25 1    
    21   19   20 1    
    22   20   21 am   BACKBONE|DICT|INTERRES
    23   20   23 2    
    24   21   22 1    
    25   21   58 1    
    26   25   27 1    
    27   25   26 1    
    28   25   28 1    
    29   28   33 ar   
    30   28   29 ar   
    31   29   30 ar   
    32   29   32 1    
    33   30   37 ar   
    34   30   31 1    
    35   33   34 1    
    36   33   35 ar   
    37   35   36 1    
    38   35   37 ar   
    39   37   38 1    
    40   38   39 1    
    41   39   44 ar   
    42   39   40 ar   
    43   40   41 ar   
    44   40   43 1    
    45   41   48 ar   
    46   41   42 1    
    47   44   45 1    
    48   44   46 ar   
    49   46   47 1    
    50   46   48 ar   
    51   48   49 1    
    52   49   50 2    
    53   49   51 1    
    54   51   52 1    
    55   51   54 1    
    56   51   53 1    
    57   54   55 1    
    58   54   56 am   BACKBONE|DICT|INTERRES
    59   56   58 1    
    60   56   57 2    
    61   58   59 1    
    62   58   60 1    
    63   60   61 ar   
    64   60   69 ar   
    65   61   62 1    
    66   61   63 ar   
    67   63   64 1    
    68   63   65 ar   
    69   65   66 1    
    70   65   67 ar   
    71   67   69 ar   
    72   67   68 1    
    73   69   70 1    
    74   71   72 1    
    75   71   75 1    
    76   71   73 1    
    77   71   74 1    
    78   75   76 1    
    79   75   80 2    
    80   76   79 1    
    81   76   77 1    
    82   76   78 1    
    83   81   82 1    
    84   81   84 1    
    85   81   85 1    
    86   81   83 1    
    87   85   90 2    
    88   85   86 1    
    89   86   88 1    
    90   86   87 1    
    91   86   89 1    
@<TRIPOS>SUBSTRUCTURE
     1 UNK         1 GROUP             0       ****    0 ROOT    
