@<TRIPOS>MOLECULE
Cpd2-500
70   73    1
SMALL
USER_CHARGES


@<TRIPOS>ATOM
      1 C1          6.3194    0.1053   -2.1533 C.3       1 ****        0.0000 
      2 H2          5.9570   -0.8250   -2.6062 H         1 ****        0.0000 
      3 H3          5.5163    0.8435   -2.2679 H         1 ****        0.0000 
      4 H4          7.2471    0.3800   -2.6705 H         1 ****        0.0000 
      5 C5          6.6509   -0.1623   -0.6858 C.3       1 ****        0.0000 
      6 C6          7.5284   -1.4202   -0.4937 C.3       1 ****        0.0000 
      7 H7          8.5762   -1.2914   -0.7920 H         1 ****        0.0000 
      8 H8          7.5114   -1.7027    0.5657 H         1 ****        0.0000 
      9 H9          7.0912   -2.2926   -0.9952 H         1 ****        0.0000 
     10 C10         7.5070    1.0392   -0.2186 C.3       1 ****        0.0000 
     11 H11         7.8056    0.9188    0.8298 H         1 ****        0.0000 
     12 H12         8.4716    0.9867   -0.7378 H         1 ****        0.0000 
     13 H13         7.1693    2.0521   -0.4710 H         1 ****        0.0000 
     14 O14         5.5014   -0.1276    0.1766 O.3       1 ****        0.0000 
     15 C15         4.4593   -0.9454    0.0334 C.2       1 ****        0.0000 
     16 O16         4.4657   -1.8423   -0.7969 O.2       1 ****        0.0000 
     17 N17         3.3835   -0.5427    0.7156 N.am      1 ****        0.0000 
     18 H18         3.5141    0.2559    1.3237 H         1 ****        0.0000 
     19 C19         2.0000   -1.0474    0.3999 C.3       1 ****        0.0000 
     20 C20         0.8999   -0.0933    1.0726 C.2       1 ****        0.0000 
     21 N21         0.0066    0.4932    0.1547 N.am      1 ****        0.0000 
     22 H22         0.1443    0.2036   -0.8057 H         1 ****        0.0000 
     23 O23         0.8822    0.1406    2.2804 O.2       1 ****        0.0000 
     24 H24         1.9385   -1.1156   -0.6937 H         1 ****        0.0000 
     25 C25         1.8823   -2.4490    1.0660 C.3       1 ****        0.0000 
     26 H26         2.1426   -2.4116    2.1303 H         1 ****        0.0000 
     27 H27         2.5776   -3.1695    0.6175 H         1 ****        0.0000 
     28 C28         0.4914   -3.0129    0.8467 C.3       1 ****        0.0000 
     29 C29        -0.5320   -2.6112    1.7383 C.3       1 ****        0.0000 
     30 C30        -1.8760   -2.9362    1.5154 C.3       1 ****        0.0000 
     31 H31        -2.5904   -2.5584    2.2412 H         1 ****        0.0000 
     32 H32        -0.3308   -1.9873    2.6038 H         1 ****        0.0000 
     33 C33         0.1298   -3.8474   -0.2145 C.3       1 ****        0.0000 
     34 H34         0.8738   -4.2467   -0.8972 H         1 ****        0.0000 
     35 C35        -1.2649   -4.1450   -0.5091 C.2       1 ****        0.0000 
     36 H36        -1.4290   -4.6997   -1.4285 H         1 ****        0.0000 
     37 C37        -2.2562   -3.7250    0.3583 C.2       1 ****        0.0000 
     38 O38        -3.5993   -3.8696    0.0044 O.3       1 ****        0.0000 
     39 C39        -4.2180   -2.7236   -0.3314 C.2       1 ****        0.0000 
     40 C40        -5.1105   -2.1373    0.5776 C.3       1 ****        0.0000 
     41 C41        -5.5730   -0.7719    0.3677 C.3       1 ****        0.0000 
     42 H42        -6.3139   -0.2589    0.9734 H         1 ****        0.0000 
     43 H43        -5.4761   -2.8338    1.3249 H         1 ****        0.0000 
     44 C44        -3.7863   -1.9640   -1.3931 C.2       1 ****        0.0000 
     45 H45        -3.0113   -2.4255   -1.9986 H         1 ****        0.0000 
     46 C46        -4.2092   -0.6343   -1.6133 C.3       1 ****        0.0000 
     47 H47        -3.8608   -0.0544   -2.4633 H         1 ****        0.0000 
     48 C48        -5.0894    0.0125   -0.7100 C.3       1 ****        0.0000 
     49 C49        -5.3196    1.5128   -0.7629 C.2       1 ****        0.0000 
     50 O50        -6.2762    1.9856   -0.2203 O.2       1 ****        0.0000 
     51 C51        -4.1837    2.3167   -1.4545 C.3       1 ****        0.0000 
     52 H52        -3.7889    1.8181   -2.3484 H         1 ****        0.0000 
     53 H53        -4.4847    3.3091   -1.8135 H         1 ****        0.0000 
     54 N54        -3.0256    2.4677   -0.5501 N.am      1 ****        0.0000 
     55 H55        -3.1615    2.7489    0.4132 H         1 ****        0.0000 
     56 C56        -1.8065    1.9221   -0.8625 C.2       1 ****        0.0000 
     57 O57        -1.3787    1.6687   -1.9307 O.2       1 ****        0.0000 
     58 C58        -0.9674    1.5870    0.3812 C.3       1 ****        0.0000 
     59 H59        -1.4999    1.3077    1.2988 H         1 ****        0.0000 
     60 C60        -0.1786    2.8108    0.6338 C.3       1 ****        0.0000 
     61 C61         0.7403    3.2997   -0.3141 C.3       1 ****        0.0000 
     62 H62         1.0286    2.6491   -1.1337 H         1 ****        0.0000 
     63 C63         1.1179    4.6735   -0.2767 C.3       1 ****        0.0000 
     64 H64         1.8549    5.0886   -0.9581 H         1 ****        0.0000 
     65 C65         0.7243    5.4886    0.8382 C.3       1 ****        0.0000 
     66 H66         1.1396    6.4900    0.8968 H         1 ****        0.0000 
     67 C67        -0.2840    5.0252    1.6993 C.3       1 ****        0.0000 
     68 H68        -0.7845    5.7068    2.3807 H         1 ****        0.0000 
     69 C69        -0.7248    3.6959    1.6174 C.3       1 ****        0.0000 
     70 H70        -1.5648    3.3672    2.2216 H         1 ****        0.0000 
@<TRIPOS>BOND
     1    1    2 1    
     2    1    3 1    
     3    1    4 1    
     4    1    5 1    
     5    5    6 1    
     6    5   10 1    
     7    5   14 1    
     8    6    7 1    
     9    6    8 1    
    10    6    9 1    
    11   10   11 1    
    12   10   12 1    
    13   10   13 1    
    14   14   15 1    
    15   15   16 2    
    16   15   17 am   BACKBONE|DICT|INTERRES
    17   17   18 1    
    18   17   19 1    
    19   19   20 1    
    20   19   24 1    
    21   19   25 1    
    22   20   21 am   BACKBONE|DICT|INTERRES
    23   20   23 2    
    24   21   22 1    
    25   21   58 1    
    26   25   26 1    
    27   25   27 1    
    28   25   28 1    
    29   28   29 1    
    30   28   33 1    
    31   29   30 1    
    32   29   32 1    
    33   30   31 1    
    34   30   37 1    
    35   33   34 1    
    36   33   35 1    
    37   35   36 1    
    38   35   37 2    
    39   37   38 1    
    40   38   39 1    
    41   39   40 1    
    42   39   44 2    
    43   40   41 1    
    44   40   43 1    
    45   41   42 1    
    46   41   48 1    
    47   44   45 1    
    48   44   46 1    
    49   46   47 1    
    50   46   48 1    
    51   48   49 1    
    52   49   50 2    
    53   49   51 1    
    54   51   52 1    
    55   51   53 1    
    56   51   54 1    
    57   54   55 1    
    58   54   56 am   BACKBONE|DICT|INTERRES
    59   56   57 2    
    60   56   58 1    
    61   58   59 1    
    62   58   60 1    
    63   60   61 1    
    64   60   69 1    
    65   61   62 1    
    66   61   63 1    
    67   63   64 1    
    68   63   65 1    
    69   65   66 1    
    70   65   67 1    
    71   67   68 1    
    72   67   69 1    
    73   69   70 1    
@<TRIPOS>SUBSTRUCTURE
     1 ****        1 GROUP             0       ****    0 ROOT    
@<TRIPOS>MOLECULE
Cpd2-1000
70   73    1
SMALL
USER_CHARGES


@<TRIPOS>ATOM
      1 C1          6.0492    1.2010   -0.0089 C.3       1 ****        0.0000 
      2 H2          6.9322    1.6148    0.4934 H         1 ****        0.0000 
      3 H3          5.7272    1.8521   -0.8313 H         1 ****        0.0000 
      4 H4          5.2474    1.1070    0.7324 H         1 ****        0.0000 
      5 C5          6.2751   -0.2694   -0.4692 C.3       1 ****        0.0000 
      6 C6          6.5855   -0.3234   -1.9892 C.3       1 ****        0.0000 
      7 H7          5.7786    0.2167   -2.5002 H         1 ****        0.0000 
      8 H8          7.5366    0.2099   -2.1113 H         1 ****        0.0000 
      9 H9          6.6183   -1.3545   -2.3602 H         1 ****        0.0000 
     10 C10         7.4497   -0.8865    0.2788 C.3       1 ****        0.0000 
     11 H11         7.4564   -0.9035    1.3761 H         1 ****        0.0000 
     12 H12         7.6849   -1.8992   -0.0715 H         1 ****        0.0000 
     13 H13         8.3533   -0.3591   -0.0497 H         1 ****        0.0000 
     14 O14         5.2097   -1.1112   -0.0983 O.3       1 ****        0.0000 
     15 C15         3.9501   -0.9403   -0.5442 C.2       1 ****        0.0000 
     16 O16         3.5869   -0.2752   -1.5037 O.2       1 ****        0.0000 
     17 N17         3.2553   -2.0436   -0.1536 N.am      1 ****        0.0000 
     18 H18         3.7666   -2.7193    0.4004 H         1 ****        0.0000 
     19 C19         1.7810   -2.0490   -0.1249 C.3       1 ****        0.0000 
     20 C20         1.1951   -0.7975    0.4361 C.2       1 ****        0.0000 
     21 N21         0.5570    0.1415   -0.4141 N.am      1 ****        0.0000 
     22 H22         0.7326    0.0618   -1.4082 H         1 ****        0.0000 
     23 O23         1.3331   -0.5235    1.6294 O.2       1 ****        0.0000 
     24 H24         1.5535   -2.0093   -1.1973 H         1 ****        0.0000 
     25 C25         1.1296   -3.3857    0.4117 C.3       1 ****        0.0000 
     26 H26         1.5375   -3.3013    1.4259 H         1 ****        0.0000 
     27 H27         1.6354   -4.1744   -0.1597 H         1 ****        0.0000 
     28 C28        -0.3761   -3.5218    0.5937 C.3       1 ****        0.0000 
     29 C29        -1.0867   -2.9032    1.6943 C.3       1 ****        0.0000 
     30 C30        -2.4931   -2.7932    1.6009 C.3       1 ****        0.0000 
     31 H31        -3.0005   -2.1724    2.3343 H         1 ****        0.0000 
     32 H32        -0.5783   -2.4789    2.5554 H         1 ****        0.0000 
     33 C33        -1.1724   -4.1669   -0.3771 C.2       1 ****        0.0000 
     34 H34        -0.6596   -4.8083   -1.0890 H         1 ****        0.0000 
     35 C35        -2.5190   -4.0790   -0.4613 C.2       1 ****        0.0000 
     36 H36        -3.1358   -4.4768   -1.2618 H         1 ****        0.0000 
     37 C37        -3.1692   -3.3359    0.5142 C.3       1 ****        0.0000 
     38 O38        -4.4430   -3.0205    0.3589 O.3       1 ****        0.0000 
     39 C39        -4.7140   -1.7622   -0.0359 C.3       1 ****        0.0000 
     40 C40        -5.2874   -0.8340    0.8979 C.3       1 ****        0.0000 
     41 C41        -5.3265    0.5385    0.5707 C.3       1 ****        0.0000 
     42 H42        -5.7176    1.2449    1.2973 H         1 ****        0.0000 
     43 H43        -5.7164   -1.2626    1.7994 H         1 ****        0.0000 
     44 C44        -4.0758   -1.2065   -1.1505 C.2       1 ****        0.0000 
     45 H45        -3.6791   -1.8659   -1.9161 H         1 ****        0.0000 
     46 C46        -4.0368    0.1458   -1.4242 C.2       1 ****        0.0000 
     47 H47        -3.5247    0.5266   -2.3032 H         1 ****        0.0000 
     48 C48        -4.7137    1.0779   -0.5641 C.3       1 ****        0.0000 
     49 C49        -4.6828    2.5473   -0.8636 C.2       1 ****        0.0000 
     50 O50        -5.5172    3.3073   -0.5002 O.2       1 ****        0.0000 
     51 C51        -3.4368    3.1101   -1.4210 C.3       1 ****        0.0000 
     52 H52        -3.2501    2.7705   -2.4473 H         1 ****        0.0000 
     53 H53        -3.4167    4.1980   -1.2811 H         1 ****        0.0000 
     54 N54        -2.3099    2.6383   -0.5194 N.am      1 ****        0.0000 
     55 H55        -2.2463    2.9089    0.4552 H         1 ****        0.0000 
     56 C56        -1.3556    1.7337   -0.8881 C.2       1 ****        0.0000 
     57 O57        -1.1984    1.3939   -2.0465 O.2       1 ****        0.0000 
     58 C58        -0.3821    1.1939    0.1776 C.3       1 ****        0.0000 
     59 H59        -1.0288    0.8184    0.9804 H         1 ****        0.0000 
     60 C60         0.4371    2.3097    0.7540 C.3       1 ****        0.0000 
     61 C61         0.9776    3.3082   -0.1130 C.2       1 ****        0.0000 
     62 H62         0.7308    3.2939   -1.1701 H         1 ****        0.0000 
     63 C63         1.7259    4.3911    0.3018 C.2       1 ****        0.0000 
     64 H64         2.1494    5.0861   -0.4177 H         1 ****        0.0000 
     65 C65         1.9360    4.5454    1.6981 C.3       1 ****        0.0000 
     66 H66         2.4705    5.4219    2.0509 H         1 ****        0.0000 
     67 C67         1.3570    3.6130    2.5696 C.3       1 ****        0.0000 
     68 H68         1.6068    3.7665    3.6150 H         1 ****        0.0000 
     69 C69         0.6182    2.4874    2.1305 C.3       1 ****        0.0000 
     70 H70         0.3149    1.6747    2.7842 H         1 ****        0.0000 
@<TRIPOS>BOND
     1    1    2 1    
     2    1    3 1    
     3    1    4 1    
     4    1    5 1    
     5    5    6 1    
     6    5   10 1    
     7    5   14 1    
     8    6    7 1    
     9    6    8 1    
    10    6    9 1    
    11   10   11 1    
    12   10   12 1    
    13   10   13 1    
    14   14   15 1    
    15   15   16 2    
    16   15   17 am   BACKBONE|DICT|INTERRES
    17   17   18 1    
    18   17   19 1    
    19   19   20 1    
    20   19   24 1    
    21   19   25 1    
    22   20   21 am   BACKBONE|DICT|INTERRES
    23   20   23 2    
    24   21   22 1    
    25   21   58 1    
    26   25   26 1    
    27   25   27 1    
    28   25   28 1    
    29   28   29 1    
    30   28   33 1    
    31   29   30 1    
    32   29   32 1    
    33   30   31 1    
    34   30   37 1    
    35   33   34 1    
    36   33   35 2    
    37   35   36 1    
    38   35   37 1    
    39   37   38 1    
    40   38   39 1    
    41   39   40 1    
    42   39   44 1    
    43   40   41 1    
    44   40   43 1    
    45   41   42 1    
    46   41   48 1    
    47   44   45 1    
    48   44   46 2    
    49   46   47 1    
    50   46   48 1    
    51   48   49 1    
    52   49   50 2    
    53   49   51 1    
    54   51   52 1    
    55   51   53 1    
    56   51   54 1    
    57   54   55 1    
    58   54   56 am   BACKBONE|DICT|INTERRES
    59   56   57 2    
    60   56   58 1    
    61   58   59 1    
    62   58   60 1    
    63   60   61 1    
    64   60   69 1    
    65   61   62 1    
    66   61   63 2    
    67   63   64 1    
    68   63   65 1    
    69   65   66 1    
    70   65   67 1    
    71   67   68 1    
    72   67   69 1    
    73   69   70 1    
@<TRIPOS>SUBSTRUCTURE
     1 ****        1 GROUP             0       ****    0 ROOT    
@<TRIPOS>MOLECULE
Cpd2-1500
70   73    1
SMALL
USER_CHARGES


@<TRIPOS>ATOM
      1 C1          6.3172    1.0052    0.0822 C.3       1 ****        0.0000 
      2 H2          6.4084    0.9124    1.1707 H         1 ****        0.0000 
      3 H3          7.1948    1.5292   -0.3175 H         1 ****        0.0000 
      4 H4          5.3610    1.4830   -0.1661 H         1 ****        0.0000 
      5 C5          6.4498   -0.3344   -0.6093 C.3       1 ****        0.0000 
      6 C6          6.3330   -0.3407   -2.2008 C.3       1 ****        0.0000 
      7 H7          6.7142   -1.2807   -2.6181 H         1 ****        0.0000 
      8 H8          5.3541   -0.2342   -2.6865 H         1 ****        0.0000 
      9 H9          6.8953    0.4750   -2.6699 H         1 ****        0.0000 
     10 C10         7.7387   -1.0027   -0.2487 C.3       1 ****        0.0000 
     11 H11         7.7003   -1.1802    0.8325 H         1 ****        0.0000 
     12 H12         7.8041   -1.9948   -0.7111 H         1 ****        0.0000 
     13 H13         8.6485   -0.4974   -0.5976 H         1 ****        0.0000 
     14 O14         5.3590   -1.2176   -0.1536 O.3       1 ****        0.0000 
     15 C15         4.0481   -0.9065   -0.3671 C.2       1 ****        0.0000 
     16 O16         3.6020   -0.1000   -1.1034 O.2       1 ****        0.0000 
     17 N17         3.3531   -1.9543    0.1515 N.am      1 ****        0.0000 
     18 H18         3.9751   -2.5064    0.7289 H         1 ****        0.0000 
     19 C19         1.8359   -1.9387    0.2018 C.3       1 ****        0.0000 
     20 C20         1.1794   -0.6387    0.7496 C.2       1 ****        0.0000 
     21 N21         0.6120    0.2663   -0.1305 N.am      1 ****        0.0000 
     22 H22         0.6886    0.1213   -1.1302 H         1 ****        0.0000 
     23 O23         1.2445   -0.3392    1.9547 O.2       1 ****        0.0000 
     24 H24         1.4904   -2.0840   -0.8300 H         1 ****        0.0000 
     25 C25         1.3456   -3.1884    0.9439 C.3       1 ****        0.0000 
     26 H26         1.7454   -3.2073    1.9645 H         1 ****        0.0000 
     27 H27         1.7678   -4.0372    0.3910 H         1 ****        0.0000 
     28 C28        -0.2304   -3.3356    0.8241 C.2       1 ****        0.0000 
     29 C29        -1.0261   -2.9479    1.8777 C.2       1 ****        0.0000 
     30 C30        -2.4213   -2.9996    1.7784 C.3       1 ****        0.0000 
     31 H31        -2.9905   -2.5730    2.5990 H         1 ****        0.0000 
     32 H32        -0.6643   -2.4836    2.7907 H         1 ****        0.0000 
     33 C33        -0.8172   -3.8812   -0.3461 C.3       1 ****        0.0000 
     34 H34        -0.1684   -4.2778   -1.1213 H         1 ****        0.0000 
     35 C35        -2.2044   -3.9904   -0.4266 C.3       1 ****        0.0000 
     36 H36        -2.6276   -4.2992   -1.3782 H         1 ****        0.0000 
     37 C37        -3.0025   -3.4252    0.5679 C.3       1 ****        0.0000 
     38 O38        -4.3369   -3.2402    0.2877 O.3       1 ****        0.0000 
     39 C39        -4.7002   -2.0230   -0.2168 C.2       1 ****        0.0000 
     40 C40        -5.4161   -1.1537    0.6308 C.3       1 ****        0.0000 
     41 C41        -5.4094    0.2254    0.3336 C.3       1 ****        0.0000 
     42 H42        -5.8278    0.9651    1.0094 H         1 ****        0.0000 
     43 H43        -5.7918   -1.4852    1.5939 H         1 ****        0.0000 
     44 C44        -4.0699   -1.5212   -1.3124 C.1       1 ****        0.0000 
     45 H45        -3.6702   -2.2788   -1.9798 H         1 ****        0.0000 
     46 C46        -4.0787   -0.2168   -1.5947 C.1       1 ****        0.0000 
     47 H47        -3.4902    0.0713   -2.4621 H         1 ****        0.0000 
     48 C48        -4.7235    0.7102   -0.8060 C.2       1 ****        0.0000 
     49 C49        -4.6883    2.1744   -1.0790 C.2       1 ****        0.0000 
     50 O50        -5.6560    2.8579   -0.8137 O.2       1 ****        0.0000 
     51 C51        -3.3612    2.6906   -1.6202 C.3       1 ****        0.0000 
     52 H52        -3.2791    2.4587   -2.6891 H         1 ****        0.0000 
     53 H53        -3.2600    3.7779   -1.5118 H         1 ****        0.0000 
     54 N54        -2.2261    2.4268   -0.7819 N.am      1 ****        0.0000 
     55 H55        -2.3808    2.5527    0.2112 H         1 ****        0.0000 
     56 C56        -1.0808    1.7637   -1.0538 C.2       1 ****        0.0000 
     57 O57        -0.7704    1.4617   -2.1767 O.2       1 ****        0.0000 
     58 C58        -0.2626    1.3926    0.1969 C.3       1 ****        0.0000 
     59 H59        -1.0113    1.1707    0.9676 H         1 ****        0.0000 
     60 C60         0.3907    2.5694    0.8387 C.3       1 ****        0.0000 
     61 C61         1.3172    3.3089    0.1070 C.3       1 ****        0.0000 
     62 H62         1.7085    3.0225   -0.8644 H         1 ****        0.0000 
     63 C63         1.5282    4.6500    0.4596 C.3       1 ****        0.0000 
     64 H64         2.0927    5.2452   -0.2520 H         1 ****        0.0000 
     65 C65         0.9500    5.2113    1.6268 C.2       1 ****        0.0000 
     66 H66         1.1755    6.2045    2.0029 H         1 ****        0.0000 
     67 C67         0.1414    4.4604    2.4479 C.2       1 ****        0.0000 
     68 H68        -0.2963    4.8715    3.3523 H         1 ****        0.0000 
     69 C69        -0.1172    3.0998    2.0563 C.3       1 ****        0.0000 
     70 H70        -0.7703    2.5040    2.6877 H         1 ****        0.0000 
@<TRIPOS>BOND
     1    1    2 1    
     2    1    3 1    
     3    1    4 1    
     4    1    5 1    
     5    5    6 1    
     6    5   10 1    
     7    5   14 1    
     8    6    7 1    
     9    6    8 1    
    10    6    9 1    
    11   10   11 1    
    12   10   12 1    
    13   10   13 1    
    14   14   15 1    
    15   15   16 2    
    16   15   17 am   BACKBONE|DICT|INTERRES
    17   17   18 1    
    18   17   19 1    
    19   19   20 1    
    20   19   24 1    
    21   19   25 1    
    22   20   21 am   BACKBONE|DICT|INTERRES
    23   20   23 2    
    24   21   22 1    
    25   21   58 1    
    26   25   26 1    
    27   25   27 1    
    28   25   28 1    
    29   28   29 2    
    30   28   33 1    
    31   29   30 1    
    32   29   32 1    
    33   30   31 1    
    34   30   37 1    
    35   33   34 1    
    36   33   35 1    
    37   35   36 1    
    38   35   37 1    
    39   37   38 1    
    40   38   39 1    
    41   39   40 1    
    42   39   44 2    
    43   40   41 1    
    44   40   43 1    
    45   41   42 1    
    46   41   48 1    
    47   44   45 1    
    48   44   46 2    
    49   46   47 1    
    50   46   48 2    
    51   48   49 1    
    52   49   50 2    
    53   49   51 1    
    54   51   52 1    
    55   51   53 1    
    56   51   54 1    
    57   54   55 1    
    58   54   56 am   BACKBONE|DICT|INTERRES
    59   56   57 2    
    60   56   58 1    
    61   58   59 1    
    62   58   60 1    
    63   60   61 1    
    64   60   69 1    
    65   61   62 1    
    66   61   63 1    
    67   63   64 1    
    68   63   65 1    
    69   65   66 1    
    70   65   67 2    
    71   67   68 1    
    72   67   69 1    
    73   69   70 1    
@<TRIPOS>SUBSTRUCTURE
     1 ****        1 GROUP             0       ****    0 ROOT    
@<TRIPOS>MOLECULE
Cpd2-2000-MEC
70   73    1
SMALL
USER_CHARGES


@<TRIPOS>ATOM
      1 C1          6.4322    0.2209   -2.2546 C.3       1 ****        0.0000 
      2 H2          7.3571    0.2231   -2.8431 H         1 ****        0.0000 
      3 H3          5.6090   -0.2539   -2.8034 H         1 ****        0.0000 
      4 H4          6.2088    1.2868   -2.1164 H         1 ****        0.0000 
      5 C5          6.6074   -0.4270   -0.8459 C.3       1 ****        0.0000 
      6 C6          7.0089   -1.9097   -0.9897 C.3       1 ****        0.0000 
      7 H7          6.8500   -2.3109    0.0186 H         1 ****        0.0000 
      8 H8          6.3335   -2.5025   -1.6186 H         1 ****        0.0000 
      9 H9          8.0678   -2.0348   -1.2433 H         1 ****        0.0000 
     10 C10         7.6352    0.3425    0.0086 C.3       1 ****        0.0000 
     11 H11         8.4305    0.6946   -0.6597 H         1 ****        0.0000 
     12 H12         7.1384    1.2053    0.4673 H         1 ****        0.0000 
     13 H13         7.9937   -0.2609    0.8517 H         1 ****        0.0000 
     14 O14         5.3843   -0.3165   -0.0088 O.3       1 ****        0.0000 
     15 C15         4.2210   -0.8607   -0.4142 C.2       1 ****        0.0000 
     16 O16         3.8891   -1.2538   -1.5397 O.2       1 ****        0.0000 
     17 N17         3.4108   -0.6642    0.6180 N.am      1 ****        0.0000 
     18 H18         3.7851   -0.3548    1.5069 H         1 ****        0.0000 
     19 C19         1.9828   -1.0633    0.4861 C.3       1 ****        0.0000 
     20 C20         1.1322    0.0861    0.9082 C.2       1 ****        0.0000 
     21 N21         0.4637    0.6550   -0.1768 N.am      1 ****        0.0000 
     22 H22         0.5613    0.0894   -1.0118 H         1 ****        0.0000 
     23 O23         0.9800    0.5383    2.0231 O.2       1 ****        0.0000 
     24 H24         1.6868   -1.3716   -0.5238 H         1 ****        0.0000 
     25 C25         1.7618   -2.2658    1.4301 C.3       1 ****        0.0000 
     26 H26         2.0788   -1.9817    2.4410 H         1 ****        0.0000 
     27 H27         2.5319   -3.0288    1.2626 H         1 ****        0.0000 
     28 C28         0.3583   -2.8620    1.3721 C.3       1 ****        0.0000 
     29 C29        -0.7172   -2.2537    2.0647 C.3       1 ****        0.0000 
     30 C30        -2.0355   -2.5328    1.6906 C.3       1 ****        0.0000 
     31 H31        -2.8177   -2.0183    2.2419 H         1 ****        0.0000 
     32 H32        -0.4402   -1.5426    2.8384 H         1 ****        0.0000 
     33 C33         0.0238   -3.7681    0.3315 C.2       1 ****        0.0000 
     34 H34         0.8896   -4.1050   -0.2301 H         1 ****        0.0000 
     35 C35        -1.2717   -4.1707    0.0561 C.2       1 ****        0.0000 
     36 H36        -1.4657   -4.9030   -0.7212 H         1 ****        0.0000 
     37 C37        -2.3022   -3.5147    0.7314 C.3       1 ****        0.0000 
     38 O38        -3.5719   -3.7186    0.3976 O.3       1 ****        0.0000 
     39 C39        -4.2266   -2.6350   -0.0882 C.3       1 ****        0.0000 
     40 C40        -5.1176   -1.8785    0.7301 C.3       1 ****        0.0000 
     41 C41        -5.4818   -0.6055    0.3052 C.3       1 ****        0.0000 
     42 H42        -6.0221   -0.0307    1.0516 H         1 ****        0.0000 
     43 H43        -5.3983   -2.1371    1.7464 H         1 ****        0.0000 
     44 C44        -3.8472   -2.1420   -1.3999 C.3       1 ****        0.0000 
     45 H45        -3.1746   -2.7025   -2.0432 H         1 ****        0.0000 
     46 C46        -4.2581   -0.8469   -1.7598 C.3       1 ****        0.0000 
     47 H47        -3.8835   -0.4237   -2.6880 H         1 ****        0.0000 
     48 C48        -5.0301   -0.0337   -0.8813 C.3       1 ****        0.0000 
     49 C49        -5.2792    1.4085   -1.1881 C.2       1 ****        0.0000 
     50 O50        -6.3604    1.8787   -0.9828 O.2       1 ****        0.0000 
     51 C51        -4.0745    2.2223   -1.6972 C.3       1 ****        0.0000 
     52 H52        -3.8349    1.8166   -2.6879 H         1 ****        0.0000 
     53 H53        -4.3981    3.2480   -1.9134 H         1 ****        0.0000 
     54 N54        -2.8470    2.2468   -0.8348 N.am      1 ****        0.0000 
     55 H55        -3.0652    2.3138    0.1517 H         1 ****        0.0000 
     56 C56        -1.5871    1.7458   -1.1987 C.2       1 ****        0.0000 
     57 O57        -1.2590    1.4784   -2.3459 O.2       1 ****        0.0000 
     58 C58        -0.6856    1.6349    0.0266 C.3       1 ****        0.0000 
     59 H59        -1.3189    1.2211    0.8202 H         1 ****        0.0000 
     60 C60        -0.2711    2.9867    0.5356 C.ar      1 ****        0.0000 
     61 C61        -0.6236    3.4120    1.8458 C.ar      1 ****        0.0000 
     62 H62        -1.2093    2.8382    2.5582 H         1 ****        0.0000 
     63 C63        -0.0598    4.5596    2.3704 C.ar      1 ****        0.0000 
     64 H64        -0.2437    4.9207    3.3788 H         1 ****        0.0000 
     65 C65         0.8857    5.2711    1.6216 C.ar      1 ****        0.0000 
     66 H66         1.3181    6.1806    2.0275 H         1 ****        0.0000 
     67 C67         1.1889    4.9092    0.3257 C.ar      1 ****        0.0000 
     68 H68         1.7597    5.5687   -0.3217 H         1 ****        0.0000 
     69 C69         0.6377    3.7180   -0.1839 C.ar      1 ****        0.0000 
     70 H70         0.9400    3.3569   -1.1627 H         1 ****        0.0000 
@<TRIPOS>BOND
     1    1    2 1    
     2    1    3 1    
     3    1    4 1    
     4    1    5 1    
     5    5    6 1    
     6    5   10 1    
     7    5   14 1    
     8    6    7 1    
     9    6    8 1    
    10    6    9 1    
    11   10   11 1    
    12   10   12 1    
    13   10   13 1    
    14   14   15 1    
    15   15   16 2    
    16   15   17 am   BACKBONE|DICT|INTERRES
    17   17   18 1    
    18   17   19 1    
    19   19   20 1    
    20   19   24 1    
    21   19   25 1    
    22   20   21 am   BACKBONE|DICT|INTERRES
    23   20   23 2    
    24   21   22 1    
    25   21   58 1    
    26   25   26 1    
    27   25   27 1    
    28   25   28 1    
    29   28   29 1    
    30   28   33 1    
    31   29   30 1    
    32   29   32 1    
    33   30   31 1    
    34   30   37 1    
    35   33   34 1    
    36   33   35 2    
    37   35   36 1    
    38   35   37 1    
    39   37   38 1    
    40   38   39 1    
    41   39   40 1    
    42   39   44 1    
    43   40   41 1    
    44   40   43 1    
    45   41   42 1    
    46   41   48 1    
    47   44   45 1    
    48   44   46 1    
    49   46   47 1    
    50   46   48 1    
    51   48   49 1    
    52   49   50 2    
    53   49   51 1    
    54   51   52 1    
    55   51   53 1    
    56   51   54 1    
    57   54   55 1    
    58   54   56 am   BACKBONE|DICT|INTERRES
    59   56   57 2    
    60   56   58 1    
    61   58   59 1    
    62   58   60 1    
    63   60   61 ar   
    64   60   69 ar   
    65   61   62 1    
    66   61   63 ar   
    67   63   64 1    
    68   63   65 ar   
    69   65   66 1    
    70   65   67 ar   
    71   67   68 1    
    72   67   69 ar   
    73   69   70 1    
@<TRIPOS>SUBSTRUCTURE
     1 ****        1 GROUP             0       ****    0 ROOT    
@<TRIPOS>MOLECULE
Cpd2-2500-MRC
70   73    1
SMALL
USER_CHARGES


@<TRIPOS>ATOM
      1 C1          6.6740    0.3906   -2.0261 C.3       1 ****        0.0000 
      2 H2          5.8680   -0.1120   -2.5762 H         1 ****        0.0000 
      3 H3          6.3908    1.4449   -1.9230 H         1 ****        0.0000 
      4 H4          7.6311    0.4252   -2.5618 H         1 ****        0.0000 
      5 C5          6.7299   -0.4117   -0.6923 C.3       1 ****        0.0000 
      6 C6          7.2230   -1.8363   -0.7639 C.3       1 ****        0.0000 
      7 H7          6.7022   -2.4898   -1.4742 H         1 ****        0.0000 
      8 H8          8.2394   -1.7404   -1.1663 H         1 ****        0.0000 
      9 H9          7.2041   -2.3502    0.2048 H         1 ****        0.0000 
     10 C10         7.6689    0.4213    0.2288 C.3       1 ****        0.0000 
     11 H11         7.1982    1.3964    0.4020 H         1 ****        0.0000 
     12 H12         7.6841   -0.1102    1.1877 H         1 ****        0.0000 
     13 H13         8.6761    0.6260   -0.1552 H         1 ****        0.0000 
     14 O14         5.5041   -0.1697    0.0033 O.3       1 ****        0.0000 
     15 C15         4.4264   -0.8858   -0.2530 C.2       1 ****        0.0000 
     16 O16         4.2423   -1.6436   -1.2209 O.2       1 ****        0.0000 
     17 N17         3.4151   -0.5171    0.6009 N.am      1 ****        0.0000 
     18 H18         3.6453   -0.0119    1.4477 H         1 ****        0.0000 
     19 C19         2.0174   -1.1054    0.4293 C.3       1 ****        0.0000 
     20 C20         1.0388   -0.0894    0.9752 C.2       1 ****        0.0000 
     21 N21         0.2386    0.6085   -0.0056 N.am      1 ****        0.0000 
     22 H22         0.5287    0.5435   -0.9740 H         1 ****        0.0000 
     23 O23         0.9555    0.0693    2.1828 O.2       1 ****        0.0000 
     24 H24         1.8731   -1.1599   -0.6569 H         1 ****        0.0000 
     25 C25         1.7998   -2.4818    1.1170 C.3       1 ****        0.0000 
     26 H26         1.9981   -2.2803    2.1773 H         1 ****        0.0000 
     27 H27         2.4807   -3.2665    0.7658 H         1 ****        0.0000 
     28 C28         0.3588   -2.9430    0.9829 C.3       1 ****        0.0000 
     29 C29        -0.6727   -2.6576    1.9083 C.3       1 ****        0.0000 
     30 C30        -2.0135   -3.0350    1.6658 C.2       1 ****        0.0000 
     31 H31        -2.8107   -2.9238    2.3947 H         1 ****        0.0000 
     32 H32        -0.4797   -2.0742    2.8033 H         1 ****        0.0000 
     33 C33        -0.0258   -3.6140   -0.1841 C.3       1 ****        0.0000 
     34 H34         0.7648   -3.9070   -0.8673 H         1 ****        0.0000 
     35 C35        -1.3307   -4.0382   -0.4268 C.3       1 ****        0.0000 
     36 H36        -1.5735   -4.4366   -1.4071 H         1 ****        0.0000 
     37 C37        -2.3346   -3.6446    0.4820 C.2       1 ****        0.0000 
     38 O38        -3.6534   -3.7949    0.0827 O.3       1 ****        0.0000 
     39 C39        -4.2499   -2.6277   -0.3437 C.2       1 ****        0.0000 
     40 C40        -5.3986   -2.1686    0.3768 C.3       1 ****        0.0000 
     41 C41        -5.7933   -0.7883    0.1954 C.3       1 ****        0.0000 
     42 H42        -6.6604   -0.4085    0.7273 H         1 ****        0.0000 
     43 H43        -5.9261   -2.8470    1.0412 H         1 ****        0.0000 
     44 C44        -3.6647   -1.8328   -1.3139 C.2       1 ****        0.0000 
     45 H45        -2.9048   -2.3084   -1.9278 H         1 ****        0.0000 
     46 C46        -4.1213   -0.5279   -1.5725 C.3       1 ****        0.0000 
     47 H47        -3.5568    0.0914   -2.2625 H         1 ****        0.0000 
     48 C48        -5.1945    0.0105   -0.7892 C.3       1 ****        0.0000 
     49 C49        -5.3915    1.5070   -0.8505 C.2       1 ****        0.0000 
     50 O50        -6.4165    2.1198   -0.5006 O.2       1 ****        0.0000 
     51 C51        -4.1838    2.5163   -1.2078 C.3       1 ****        0.0000 
     52 H52        -3.9711    2.1606   -2.2232 H         1 ****        0.0000 
     53 H53        -4.5810    3.5394   -1.2001 H         1 ****        0.0000 
     54 N54        -3.0340    2.2839   -0.2871 N.am      1 ****        0.0000 
     55 H55        -3.0081    2.7508    0.6118 H         1 ****        0.0000 
     56 C56        -1.8217    1.7652   -0.6895 C.2       1 ****        0.0000 
     57 O57        -1.5766    1.2826   -1.8153 O.2       1 ****        0.0000 
     58 C58        -0.8244    1.6347    0.3657 C.3       1 ****        0.0000 
     59 H59        -1.2789    1.2554    1.2895 H         1 ****        0.0000 
     60 C60        -0.1228    3.0008    0.5774 C.2       1 ****        0.0000 
     61 C61        -0.3606    3.6996    1.7162 C.1       1 ****        0.0000 
     62 H62        -0.8403    3.2545    2.5831 H         1 ****        0.0000 
     63 C63         0.1891    4.9560    1.8404 C.2       1 ****        0.0000 
     64 H64        -0.0602    5.5689    2.7017 H         1 ****        0.0000 
     65 C65         0.9061    5.5637    0.8058 C.2       1 ****        0.0000 
     66 H66         1.2868    6.5751    0.9140 H         1 ****        0.0000 
     67 C67         1.1259    4.8544   -0.3468 C.2       1 ****        0.0000 
     68 H68         1.7287    5.2898   -1.1384 H         1 ****        0.0000 
     69 C69         0.7100    3.5275   -0.4343 C.3       1 ****        0.0000 
     70 H70         0.7879    3.0122   -1.3871 H         1 ****        0.0000 
@<TRIPOS>BOND
     1    1    2 1    
     2    1    3 1    
     3    1    4 1    
     4    1    5 1    
     5    5    6 1    
     6    5   10 1    
     7    5   14 1    
     8    6    7 1    
     9    6    8 1    
    10    6    9 1    
    11   10   11 1    
    12   10   12 1    
    13   10   13 1    
    14   14   15 1    
    15   15   16 2    
    16   15   17 am   BACKBONE|DICT|INTERRES
    17   17   18 1    
    18   17   19 1    
    19   19   20 1    
    20   19   24 1    
    21   19   25 1    
    22   20   21 am   BACKBONE|DICT|INTERRES
    23   20   23 2    
    24   21   22 1    
    25   21   58 1    
    26   25   26 1    
    27   25   27 1    
    28   25   28 1    
    29   28   29 1    
    30   28   33 1    
    31   29   30 1    
    32   29   32 1    
    33   30   31 1    
    34   30   37 2    
    35   33   34 1    
    36   33   35 1    
    37   35   36 1    
    38   35   37 1    
    39   37   38 1    
    40   38   39 1    
    41   39   40 1    
    42   39   44 2    
    43   40   41 1    
    44   40   43 1    
    45   41   42 1    
    46   41   48 1    
    47   44   45 1    
    48   44   46 1    
    49   46   47 1    
    50   46   48 1    
    51   48   49 1    
    52   49   50 2    
    53   49   51 1    
    54   51   52 1    
    55   51   53 1    
    56   51   54 1    
    57   54   55 1    
    58   54   56 am   BACKBONE|DICT|INTERRES
    59   56   57 2    
    60   56   58 1    
    61   58   59 1    
    62   58   60 1    
    63   60   61 2    
    64   60   69 1    
    65   61   62 1    
    66   61   63 2    
    67   63   64 1    
    68   63   65 1    
    69   65   66 1    
    70   65   67 2    
    71   67   68 1    
    72   67   69 1    
    73   69   70 1    
@<TRIPOS>SUBSTRUCTURE
     1 ****        1 GROUP             0       ****    0 ROOT    
@<TRIPOS>MOLECULE
Cpd2-3000
70   73    1
SMALL
USER_CHARGES


@<TRIPOS>ATOM
      1 C1          4.9388    2.2958   -2.1534 C.3       1 ****        0.0000 
      2 H2          4.5602    2.6467   -1.1852 H         1 ****        0.0000 
      3 H3          5.5844    3.0277   -2.6539 H         1 ****        0.0000 
      4 H4          3.9819    2.2989   -2.6907 H         1 ****        0.0000 
      5 C5          5.5535    0.8995   -1.9982 C.3       1 ****        0.0000 
      6 C6          5.5223    0.0619   -3.2592 C.3       1 ****        0.0000 
      7 H7          5.7295   -0.9757   -2.9703 H         1 ****        0.0000 
      8 H8          4.5300   -0.0003   -3.7215 H         1 ****        0.0000 
      9 H9          6.2713    0.3705   -3.9994 H         1 ****        0.0000 
     10 C10         6.9658    1.0721   -1.4963 C.3       1 ****        0.0000 
     11 H11         6.9404    1.8279   -0.7025 H         1 ****        0.0000 
     12 H12         7.4014    0.1233   -1.1603 H         1 ****        0.0000 
     13 H13         7.6208    1.4596   -2.2868 H         1 ****        0.0000 
     14 O14         4.9066    0.1529   -0.9429 O.3       1 ****        0.0000 
     15 C15         3.5677   -0.0682   -0.9358 C.2       1 ****        0.0000 
     16 O16         2.8817    0.0493   -1.9544 O.2       1 ****        0.0000 
     17 N17         3.1990   -0.6952    0.2342 N.am      1 ****        0.0000 
     18 H18         3.8644   -0.5379    0.9817 H         1 ****        0.0000 
     19 C19         1.7806   -1.0122    0.4943 C.3       1 ****        0.0000 
     20 C20         0.9736    0.2369    0.8263 C.2       1 ****        0.0000 
     21 N21         0.3726    0.7841   -0.3482 N.am      1 ****        0.0000 
     22 H22         0.4160    0.2547   -1.2110 H         1 ****        0.0000 
     23 O23         0.9284    0.6799    1.9694 O.2       1 ****        0.0000 
     24 H24         1.3673   -1.2660   -0.4882 H         1 ****        0.0000 
     25 C25         1.6206   -2.2254    1.4236 C.3       1 ****        0.0000 
     26 H26         1.7360   -1.7759    2.4175 H         1 ****        0.0000 
     27 H27         2.3759   -3.0041    1.2599 H         1 ****        0.0000 
     28 C28         0.1887   -2.8288    1.3736 C.3       1 ****        0.0000 
     29 C29        -0.9440   -2.2783    2.0174 C.2       1 ****        0.0000 
     30 C30        -2.2013   -2.7076    1.8344 C.2       1 ****        0.0000 
     31 H31        -2.9739   -2.0908    2.2837 H         1 ****        0.0000 
     32 H32        -0.8328   -1.4046    2.6536 H         1 ****        0.0000 
     33 C33        -0.0322   -4.0249    0.6410 C.3       1 ****        0.0000 
     34 H34         0.8090   -4.5100    0.1547 H         1 ****        0.0000 
     35 C35        -1.3669   -4.4387    0.3837 C.3       1 ****        0.0000 
     36 H36        -1.6427   -5.1885   -0.3525 H         1 ****        0.0000 
     37 C37        -2.4448   -3.6979    0.8887 C.3       1 ****        0.0000 
     38 O38        -3.7027   -3.9263    0.3615 O.3       1 ****        0.0000 
     39 C39        -4.2594   -2.8804   -0.2290 C.3       1 ****        0.0000 
     40 C40        -5.1931   -2.1555    0.5515 C.3       1 ****        0.0000 
     41 C41        -5.5223   -0.7932    0.2668 C.3       1 ****        0.0000 
     42 H42        -6.1245   -0.2447    0.9863 H         1 ****        0.0000 
     43 H43        -5.7017   -2.5896    1.4072 H         1 ****        0.0000 
     44 C44        -3.6818   -2.2543   -1.3597 C.3       1 ****        0.0000 
     45 H45        -2.9935   -2.7926   -2.0045 H         1 ****        0.0000 
     46 C46        -4.0189   -0.9278   -1.6348 C.3       1 ****        0.0000 
     47 H47        -3.6044   -0.4981   -2.5412 H         1 ****        0.0000 
     48 C48        -4.8147   -0.1321   -0.7859 C.3       1 ****        0.0000 
     49 C49        -5.0461    1.3681   -1.0004 C.2       1 ****        0.0000 
     50 O50        -6.0841    1.9525   -0.5722 O.2       1 ****        0.0000 
     51 C51        -3.9806    2.1900   -1.7645 C.3       1 ****        0.0000 
     52 H52        -3.7635    1.7526   -2.7471 H         1 ****        0.0000 
     53 H53        -4.3998    3.2022   -1.8088 H         1 ****        0.0000 
     54 N54        -2.7747    2.1751   -0.9382 N.am      1 ****        0.0000 
     55 H55        -2.8413    2.0626    0.0659 H         1 ****        0.0000 
     56 C56        -1.4720    2.2053   -1.4087 C.2       1 ****        0.0000 
     57 O57        -1.2647    2.2294   -2.5900 O.2       1 ****        0.0000 
     58 C58        -0.3107    2.0654   -0.4006 C.3       1 ****        0.0000 
     59 H59        -0.7165    2.2110    0.6082 H         1 ****        0.0000 
     60 C60         0.5552    3.2487   -0.6246 C.2       1 ****        0.0000 
     61 C61         1.5155    3.2899   -1.6396 C.3       1 ****        0.0000 
     62 H62         1.7398    2.3994   -2.2195 H         1 ****        0.0000 
     63 C63         2.2186    4.4614   -1.8959 C.3       1 ****        0.0000 
     64 H64         2.9529    4.5011   -2.6942 H         1 ****        0.0000 
     65 C65         2.0260    5.5660   -1.0407 C.2       1 ****        0.0000 
     66 H66         2.6192    6.4524   -1.2446 H         1 ****        0.0000 
     67 C67         1.1199    5.5520   -0.0129 C.2       1 ****        0.0000 
     68 H68         1.0634    6.3788    0.6884 H         1 ****        0.0000 
     69 C69         0.4146    4.3463    0.1751 C.2       1 ****        0.0000 
     70 H70        -0.3497    4.2973    0.9450 H         1 ****        0.0000 
@<TRIPOS>BOND
     1    1    2 1    
     2    1    3 1    
     3    1    4 1    
     4    1    5 1    
     5    5    6 1    
     6    5   10 1    
     7    5   14 1    
     8    6    7 1    
     9    6    8 1    
    10    6    9 1    
    11   10   11 1    
    12   10   12 1    
    13   10   13 1    
    14   14   15 1    
    15   15   16 2    
    16   15   17 am   BACKBONE|DICT|INTERRES
    17   17   18 1    
    18   17   19 1    
    19   19   20 1    
    20   19   24 1    
    21   19   25 1    
    22   20   21 am   BACKBONE|DICT|INTERRES
    23   20   23 2    
    24   21   22 1    
    25   21   58 1    
    26   25   26 1    
    27   25   27 1    
    28   25   28 1    
    29   28   29 1    
    30   28   33 1    
    31   29   30 2    
    32   29   32 1    
    33   30   31 1    
    34   30   37 1    
    35   33   34 1    
    36   33   35 1    
    37   35   36 1    
    38   35   37 1    
    39   37   38 1    
    40   38   39 1    
    41   39   40 1    
    42   39   44 1    
    43   40   41 1    
    44   40   43 1    
    45   41   42 1    
    46   41   48 1    
    47   44   45 1    
    48   44   46 1    
    49   46   47 1    
    50   46   48 1    
    51   48   49 1    
    52   49   50 2    
    53   49   51 1    
    54   51   52 1    
    55   51   53 1    
    56   51   54 1    
    57   54   55 1    
    58   54   56 am   BACKBONE|DICT|INTERRES
    59   56   57 2    
    60   56   58 1    
    61   58   59 1    
    62   58   60 1    
    63   60   61 1    
    64   60   69 2    
    65   61   62 1    
    66   61   63 1    
    67   63   64 1    
    68   63   65 1    
    69   65   66 1    
    70   65   67 2    
    71   67   68 1    
    72   67   69 1    
    73   69   70 1    
@<TRIPOS>SUBSTRUCTURE
     1 ****        1 GROUP             0       ****    0 ROOT    
@<TRIPOS>MOLECULE
Cpd2-3500
70   73    1
SMALL
USER_CHARGES


@<TRIPOS>ATOM
      1 C1          6.7228    0.5532   -1.5963 C.3       1 ****        0.0000 
      2 H2          7.7092    0.6879   -2.0564 H         1 ****        0.0000 
      3 H3          5.9911    0.2566   -2.3578 H         1 ****        0.0000 
      4 H4          6.4625    1.5412   -1.1972 H         1 ****        0.0000 
      5 C5          6.7940   -0.5977   -0.5446 C.3       1 ****        0.0000 
      6 C6          7.0527   -1.9745   -1.2071 C.3       1 ****        0.0000 
      7 H7          6.8017   -2.7286   -0.4520 H         1 ****        0.0000 
      8 H8          6.4526   -2.1166   -2.1145 H         1 ****        0.0000 
      9 H9          8.1210   -2.0613   -1.4374 H         1 ****        0.0000 
     10 C10         7.8329   -0.3103    0.5406 C.3       1 ****        0.0000 
     11 H11         7.6085    0.6183    1.0787 H         1 ****        0.0000 
     12 H12         7.8477   -1.0948    1.3069 H         1 ****        0.0000 
     13 H13         8.8101   -0.2901    0.0416 H         1 ****        0.0000 
     14 O14         5.6157   -0.6437    0.2922 O.3       1 ****        0.0000 
     15 C15         4.4829   -0.8628   -0.4097 C.2       1 ****        0.0000 
     16 O16         4.2218   -1.2555   -1.5973 O.2       1 ****        0.0000 
     17 N17         3.4783   -0.7331    0.5351 N.am      1 ****        0.0000 
     18 H18         3.7632   -0.3482    1.4271 H         1 ****        0.0000 
     19 C19         1.9926   -0.9077    0.3093 C.3       1 ****        0.0000 
     20 C20         1.2252    0.2770    0.9025 C.2       1 ****        0.0000 
     21 N21         0.1198    0.5623    0.1511 N.am      1 ****        0.0000 
     22 H22        -0.0520   -0.0322   -0.6513 H         1 ****        0.0000 
     23 O23         1.4423    0.8138    1.9739 O.2       1 ****        0.0000 
     24 H24         1.7096   -0.8561   -0.7493 H         1 ****        0.0000 
     25 C25         1.6833   -2.2710    0.9499 C.3       1 ****        0.0000 
     26 H26         2.0656   -2.3225    1.9772 H         1 ****        0.0000 
     27 H27         2.2844   -3.0262    0.4286 H         1 ****        0.0000 
     28 C28         0.2555   -2.6860    0.8185 C.3       1 ****        0.0000 
     29 C29        -0.7822   -2.2539    1.6653 C.3       1 ****        0.0000 
     30 C30        -2.0813   -2.7767    1.5866 C.3       1 ****        0.0000 
     31 H31        -2.7652   -2.5047    2.3846 H         1 ****        0.0000 
     32 H32        -0.5806   -1.5344    2.4529 H         1 ****        0.0000 
     33 C33        -0.1055   -3.6503   -0.1428 C.3       1 ****        0.0000 
     34 H34         0.7117   -4.0120   -0.7615 H         1 ****        0.0000 
     35 C35        -1.4192   -4.0886   -0.3484 C.3       1 ****        0.0000 
     36 H36        -1.5984   -4.7896   -1.1582 H         1 ****        0.0000 
     37 C37        -2.4283   -3.6468    0.5334 C.3       1 ****        0.0000 
     38 O38        -3.7904   -3.8584    0.3126 O.3       1 ****        0.0000 
     39 C39        -4.4541   -2.7416   -0.1080 C.3       1 ****        0.0000 
     40 C40        -5.4457   -2.1169    0.6878 C.3       1 ****        0.0000 
     41 C41        -5.8743   -0.8113    0.3856 C.3       1 ****        0.0000 
     42 H42        -6.5569   -0.3491    1.0932 H         1 ****        0.0000 
     43 H43        -5.8375   -2.6196    1.5667 H         1 ****        0.0000 
     44 C44        -3.8726   -2.0391   -1.1581 C.3       1 ****        0.0000 
     45 H45        -3.0713   -2.4844   -1.7398 H         1 ****        0.0000 
     46 C46        -4.2542   -0.7017   -1.4178 C.3       1 ****        0.0000 
     47 H47        -3.8453   -0.0831   -2.2114 H         1 ****        0.0000 
     48 C48        -5.1986   -0.0488   -0.5742 C.3       1 ****        0.0000 
     49 C49        -5.3863    1.4738   -0.7664 C.2       1 ****        0.0000 
     50 O50        -6.3869    2.0807   -0.4462 O.2       1 ****        0.0000 
     51 C51        -4.2353    2.2570   -1.3290 C.3       1 ****        0.0000 
     52 H52        -4.0868    2.0120   -2.3875 H         1 ****        0.0000 
     53 H53        -4.7049    3.2455   -1.4024 H         1 ****        0.0000 
     54 N54        -2.9674    2.3487   -0.4994 N.am      1 ****        0.0000 
     55 H55        -2.8923    2.7068    0.4449 H         1 ****        0.0000 
     56 C56        -1.7905    1.7691   -0.8644 C.2       1 ****        0.0000 
     57 O57        -1.5317    1.4552   -2.0225 O.2       1 ****        0.0000 
     58 C58        -0.7947    1.6779    0.2645 C.3       1 ****        0.0000 
     59 H59        -1.2801    1.4751    1.2271 H         1 ****        0.0000 
     60 C60         0.0275    2.9433    0.4054 C.1       1 ****        0.0000 
     61 C61         0.4252    3.7123   -0.6525 C.2       1 ****        0.0000 
     62 H62         0.1422    3.3708   -1.6441 H         1 ****        0.0000 
     63 C63         0.8865    5.0022   -0.4212 C.3       1 ****        0.0000 
     64 H64         1.1286    5.6235   -1.2789 H         1 ****        0.0000 
     65 C65         0.8455    5.5287    0.8684 C.2       1 ****        0.0000 
     66 H66         1.0377    6.5846    1.0277 H         1 ****        0.0000 
     67 C67         0.5740    4.7482    1.9559 C.2       1 ****        0.0000 
     68 H68         0.7291    5.1323    2.9599 H         1 ****        0.0000 
     69 C69         0.1510    3.4141    1.7017 C.2       1 ****        0.0000 
     70 H70        -0.0603    2.7903    2.5646 H         1 ****        0.0000 
@<TRIPOS>BOND
     1    1    2 1    
     2    1    3 1    
     3    1    4 1    
     4    1    5 1    
     5    5    6 1    
     6    5   10 1    
     7    5   14 1    
     8    6    7 1    
     9    6    8 1    
    10    6    9 1    
    11   10   11 1    
    12   10   12 1    
    13   10   13 1    
    14   14   15 1    
    15   15   16 2    
    16   15   17 am   BACKBONE|DICT|INTERRES
    17   17   18 1    
    18   17   19 1    
    19   19   20 1    
    20   19   24 1    
    21   19   25 1    
    22   20   21 am   BACKBONE|DICT|INTERRES
    23   20   23 2    
    24   21   22 1    
    25   21   58 1    
    26   25   26 1    
    27   25   27 1    
    28   25   28 1    
    29   28   29 1    
    30   28   33 1    
    31   29   30 1    
    32   29   32 1    
    33   30   31 1    
    34   30   37 1    
    35   33   34 1    
    36   33   35 1    
    37   35   36 1    
    38   35   37 1    
    39   37   38 1    
    40   38   39 1    
    41   39   40 1    
    42   39   44 1    
    43   40   41 1    
    44   40   43 1    
    45   41   42 1    
    46   41   48 1    
    47   44   45 1    
    48   44   46 1    
    49   46   47 1    
    50   46   48 1    
    51   48   49 1    
    52   49   50 2    
    53   49   51 1    
    54   51   52 1    
    55   51   53 1    
    56   51   54 1    
    57   54   55 1    
    58   54   56 am   BACKBONE|DICT|INTERRES
    59   56   57 2    
    60   56   58 1    
    61   58   59 1    
    62   58   60 1    
    63   60   61 2    
    64   60   69 2    
    65   61   62 1    
    66   61   63 1    
    67   63   64 1    
    68   63   65 1    
    69   65   66 1    
    70   65   67 2    
    71   67   68 1    
    72   67   69 1    
    73   69   70 1    
@<TRIPOS>SUBSTRUCTURE
     1 ****        1 GROUP             0       ****    0 ROOT    
@<TRIPOS>MOLECULE
Cpd2-4000
70   73    1
SMALL
USER_CHARGES


@<TRIPOS>ATOM
      1 C1          6.0332    0.7404   -0.4984 C.3       1 ****        0.0000 
      2 H2          6.0469    0.8220    0.5957 H         1 ****        0.0000 
      3 H3          6.9849    1.1689   -0.8372 H         1 ****        0.0000 
      4 H4          5.1185    1.2841   -0.7625 H         1 ****        0.0000 
      5 C5          5.9197   -0.7019   -0.9354 C.3       1 ****        0.0000 
      6 C6          5.7503   -0.9014   -2.5109 C.3       1 ****        0.0000 
      7 H7          6.7194   -0.6222   -2.9431 H         1 ****        0.0000 
      8 H8          5.6375   -1.9654   -2.7564 H         1 ****        0.0000 
      9 H9          5.0235   -0.2676   -3.0318 H         1 ****        0.0000 
     10 C10         7.2203   -1.4613   -0.5183 C.3       1 ****        0.0000 
     11 H11         7.1737   -2.5469   -0.6679 H         1 ****        0.0000 
     12 H12         8.0910   -1.0444   -1.0379 H         1 ****        0.0000 
     13 H13         7.4380   -1.2535    0.5366 H         1 ****        0.0000 
     14 O14         4.9146   -1.4676   -0.3840 O.3       1 ****        0.0000 
     15 C15         3.6205   -1.1049   -0.3524 C.2       1 ****        0.0000 
     16 O16         3.0981   -0.3700   -1.1316 O.2       1 ****        0.0000 
     17 N17         2.8491   -1.9351    0.3758 N.am      1 ****        0.0000 
     18 H18         3.3616   -2.6059    0.9348 H         1 ****        0.0000 
     19 C19         1.3749   -2.0176    0.4609 C.3       1 ****        0.0000 
     20 C20         0.6960   -0.6988    0.9462 C.2       1 ****        0.0000 
     21 N21         0.5077    0.2354   -0.0439 N.am      1 ****        0.0000 
     22 H22         1.1104    0.0796   -0.8421 H         1 ****        0.0000 
     23 O23         0.2008   -0.4760    2.0931 O.2       1 ****        0.0000 
     24 H24         1.0187   -2.1386   -0.5689 H         1 ****        0.0000 
     25 C25         0.9900   -3.3268    1.2253 C.3       1 ****        0.0000 
     26 H26         1.2167   -3.2289    2.2935 H         1 ****        0.0000 
     27 H27         1.4949   -4.1902    0.7743 H         1 ****        0.0000 
     28 C28        -0.5467   -3.4263    1.0479 C.3       1 ****        0.0000 
     29 C29        -1.4787   -2.9396    2.0020 C.3       1 ****        0.0000 
     30 C30        -2.8646   -2.8992    1.7200 C.3       1 ****        0.0000 
     31 H31        -3.5142   -2.4141    2.4418 H         1 ****        0.0000 
     32 H32        -1.1202   -2.7258    3.0045 H         1 ****        0.0000 
     33 C33        -1.1031   -4.1037   -0.0943 C.3       1 ****        0.0000 
     34 H34        -0.4137   -4.5668   -0.7940 H         1 ****        0.0000 
     35 C35        -2.4743   -3.9116   -0.4607 C.3       1 ****        0.0000 
     36 H36        -2.8068   -4.4384   -1.3507 H         1 ****        0.0000 
     37 C37        -3.3047   -3.2014    0.4267 C.3       1 ****        0.0000 
     38 O38        -4.5475   -2.8369    0.0282 O.3       1 ****        0.0000 
     39 C39        -4.6784   -1.5583   -0.4054 C.3       1 ****        0.0000 
     40 C40        -5.5762   -0.7377    0.2620 C.3       1 ****        0.0000 
     41 C41        -5.5494    0.6222   -0.0567 C.3       1 ****        0.0000 
     42 H42        -6.2290    1.3461    0.3845 H         1 ****        0.0000 
     43 H43        -6.0574   -1.2221    1.1054 H         1 ****        0.0000 
     44 C44        -3.8150   -1.0987   -1.4298 C.3       1 ****        0.0000 
     45 H45        -3.0636   -1.7244   -1.9040 H         1 ****        0.0000 
     46 C46        -3.7831    0.3291   -1.7323 C.3       1 ****        0.0000 
     47 H47        -3.1260    0.7426   -2.4911 H         1 ****        0.0000 
     48 C48        -4.6003    1.1829   -0.9943 C.3       1 ****        0.0000 
     49 C49        -4.3169    2.6218   -0.9619 C.2       1 ****        0.0000 
     50 O50        -5.0136    3.3871   -0.3171 O.2       1 ****        0.0000 
     51 C51        -3.0004    3.2076   -1.6529 C.3       1 ****        0.0000 
     52 H52        -2.7759    2.7200   -2.6091 H         1 ****        0.0000 
     53 H53        -3.0695    4.3029   -1.6617 H         1 ****        0.0000 
     54 N54        -1.8426    2.9809   -0.7485 N.am      1 ****        0.0000 
     55 H55        -1.9105    3.2473    0.2269 H         1 ****        0.0000 
     56 C56        -0.8380    2.1319   -1.0498 C.2       1 ****        0.0000 
     57 O57        -0.5920    1.7235   -2.1835 O.2       1 ****        0.0000 
     58 C58        -0.1949    1.5479    0.2046 C.3       1 ****        0.0000 
     59 H59        -0.9135    1.3421    1.0079 H         1 ****        0.0000 
     60 C60         0.7758    2.5691    0.8556 C.3       1 ****        0.0000 
     61 C61         2.0599    2.7837    0.2308 C.3       1 ****        0.0000 
     62 H62         2.4065    2.2806   -0.6662 H         1 ****        0.0000 
     63 C63         3.0234    3.6291    0.8730 C.3       1 ****        0.0000 
     64 H64         3.9620    3.7952    0.3522 H         1 ****        0.0000 
     65 C65         2.6400    4.3165    2.0411 C.3       1 ****        0.0000 
     66 H66         3.3784    4.9780    2.4865 H         1 ****        0.0000 
     67 C67         1.4054    4.0511    2.6836 C.3       1 ****        0.0000 
     68 H68         1.0795    4.5521    3.5900 H         1 ****        0.0000 
     69 C69         0.4691    3.1323    2.1108 C.3       1 ****        0.0000 
     70 H70        -0.4663    2.9865    2.6421 H         1 ****        0.0000 
@<TRIPOS>BOND
     1    1    2 1    
     2    1    3 1    
     3    1    4 1    
     4    1    5 1    
     5    5    6 1    
     6    5   10 1    
     7    5   14 1    
     8    6    7 1    
     9    6    8 1    
    10    6    9 1    
    11   10   11 1    
    12   10   12 1    
    13   10   13 1    
    14   14   15 1    
    15   15   16 2    
    16   15   17 am   BACKBONE|DICT|INTERRES
    17   17   18 1    
    18   17   19 1    
    19   19   20 1    
    20   19   24 1    
    21   19   25 1    
    22   20   21 am   BACKBONE|DICT|INTERRES
    23   20   23 2    
    24   21   22 1    
    25   21   58 1    
    26   25   26 1    
    27   25   27 1    
    28   25   28 1    
    29   28   29 1    
    30   28   33 1    
    31   29   30 1    
    32   29   32 1    
    33   30   31 1    
    34   30   37 1    
    35   33   34 1    
    36   33   35 1    
    37   35   36 1    
    38   35   37 1    
    39   37   38 1    
    40   38   39 1    
    41   39   40 1    
    42   39   44 1    
    43   40   41 1    
    44   40   43 1    
    45   41   42 1    
    46   41   48 1    
    47   44   45 1    
    48   44   46 1    
    49   46   47 1    
    50   46   48 1    
    51   48   49 1    
    52   49   50 2    
    53   49   51 1    
    54   51   52 1    
    55   51   53 1    
    56   51   54 1    
    57   54   55 1    
    58   54   56 am   BACKBONE|DICT|INTERRES
    59   56   57 2    
    60   56   58 1    
    61   58   59 1    
    62   58   60 1    
    63   60   61 1    
    64   60   69 1    
    65   61   62 1    
    66   61   63 1    
    67   63   64 1    
    68   63   65 1    
    69   65   66 1    
    70   65   67 1    
    71   67   68 1    
    72   67   69 1    
    73   69   70 1    
@<TRIPOS>SUBSTRUCTURE
     1 ****        1 GROUP             0       ****    0 ROOT    
@<TRIPOS>MOLECULE
Cpd2-4500
70   73    1
SMALL
USER_CHARGES


@<TRIPOS>ATOM
      1 C1          6.0069    0.9372   -0.9663 C.3       1 ****        0.0000 
      2 H2          6.7192    1.2739   -1.7299 H         1 ****        0.0000 
      3 H3          4.9989    1.3521   -1.0881 H         1 ****        0.0000 
      4 H4          6.5051    1.2544   -0.0432 H         1 ****        0.0000 
      5 C5          6.0149   -0.6151   -1.0995 C.3       1 ****        0.0000 
      6 C6          5.7293   -1.0968   -2.5827 C.3       1 ****        0.0000 
      7 H7          4.7862   -0.7931   -3.0540 H         1 ****        0.0000 
      8 H8          6.4960   -0.6487   -3.2273 H         1 ****        0.0000 
      9 H9          5.9389   -2.1685   -2.6821 H         1 ****        0.0000 
     10 C10         7.3533   -1.1559   -0.7294 C.3       1 ****        0.0000 
     11 H11         8.1658   -0.8390   -1.3950 H         1 ****        0.0000 
     12 H12         7.7220   -0.7843    0.2340 H         1 ****        0.0000 
     13 H13         7.3731   -2.2517   -0.7037 H         1 ****        0.0000 
     14 O14         5.0986   -1.1490   -0.1501 O.3       1 ****        0.0000 
     15 C15         3.8280   -0.8379   -0.1818 C.2       1 ****        0.0000 
     16 O16         3.2329   -0.1488   -0.9314 O.2       1 ****        0.0000 
     17 N17         3.1825   -1.5571    0.8599 N.am      1 ****        0.0000 
     18 H18         3.8674   -2.1402    1.3242 H         1 ****        0.0000 
     19 C19         1.6879   -1.7508    0.8596 C.3       1 ****        0.0000 
     20 C20         1.0142   -0.4337    1.3249 C.2       1 ****        0.0000 
     21 N21         0.6691    0.3895    0.2817 N.am      1 ****        0.0000 
     22 H22         0.8283    0.1476   -0.6888 H         1 ****        0.0000 
     23 O23         0.7746   -0.1741    2.4983 O.2       1 ****        0.0000 
     24 H24         1.4408   -1.8328   -0.2068 H         1 ****        0.0000 
     25 C25         1.2848   -3.0386    1.6684 C.3       1 ****        0.0000 
     26 H26         1.5445   -2.7656    2.6988 H         1 ****        0.0000 
     27 H27         1.8948   -3.8953    1.3538 H         1 ****        0.0000 
     28 C28        -0.1496   -3.3385    1.2994 C.3       1 ****        0.0000 
     29 C29        -1.1943   -2.6977    1.9992 C.2       1 ****        0.0000 
     30 C30        -2.4720   -2.8066    1.5253 C.2       1 ****        0.0000 
     31 H31        -3.3313   -2.3803    2.0341 H         1 ****        0.0000 
     32 H32        -1.0776   -2.0580    2.8688 H         1 ****        0.0000 
     33 C33        -0.4401   -4.0486    0.1043 C.2       1 ****        0.0000 
     34 H34         0.3649   -4.4646   -0.4947 H         1 ****        0.0000 
     35 C35        -1.6854   -4.1524   -0.3884 C.2       1 ****        0.0000 
     36 H36        -1.8005   -4.6010   -1.3714 H         1 ****        0.0000 
     37 C37        -2.7141   -3.5054    0.3014 C.3       1 ****        0.0000 
     38 O38        -3.9919   -3.4429   -0.2510 O.3       1 ****        0.0000 
     39 C39        -4.3486   -2.1436   -0.5798 C.3       1 ****        0.0000 
     40 C40        -5.2282   -1.4002    0.2178 C.3       1 ****        0.0000 
     41 C41        -5.4445   -0.0264    0.0517 C.3       1 ****        0.0000 
     42 H42        -6.0646    0.5736    0.7104 H         1 ****        0.0000 
     43 H43        -5.8974   -1.9074    0.9066 H         1 ****        0.0000 
     44 C44        -3.6059   -1.4737   -1.5597 C.3       1 ****        0.0000 
     45 H45        -2.9873   -2.0128   -2.2716 H         1 ****        0.0000 
     46 C46        -3.7491   -0.0675   -1.7154 C.3       1 ****        0.0000 
     47 H47        -3.2288    0.4390   -2.5232 H         1 ****        0.0000 
     48 C48        -4.6868    0.6360   -0.9561 C.3       1 ****        0.0000 
     49 C49        -4.6403    2.1177   -1.0834 C.2       1 ****        0.0000 
     50 O50        -5.6446    2.7392   -0.7699 O.2       1 ****        0.0000 
     51 C51        -3.3743    2.8644   -1.5359 C.3       1 ****        0.0000 
     52 H52        -3.0131    2.5722   -2.5291 H         1 ****        0.0000 
     53 H53        -3.6662    3.9196   -1.4696 H         1 ****        0.0000 
     54 N54        -2.2869    2.5824   -0.5477 N.am      1 ****        0.0000 
     55 H55        -2.1186    3.2137    0.2256 H         1 ****        0.0000 
     56 C56        -1.2126    1.7566   -0.8579 C.2       1 ****        0.0000 
     57 O57        -0.9647    1.2354   -1.9412 O.2       1 ****        0.0000 
     58 C58        -0.3058    1.5345    0.4475 C.3       1 ****        0.0000 
     59 H59        -0.9414    1.2659    1.2999 H         1 ****        0.0000 
     60 C60         0.3157    2.8113    0.8198 C.3       1 ****        0.0000 
     61 C61         1.1444    3.4283   -0.1326 C.2       1 ****        0.0000 
     62 H62         1.4827    2.9044   -1.0212 H         1 ****        0.0000 
     63 C63         1.8919    4.5252    0.2248 C.2       1 ****        0.0000 
     64 H64         2.6273    4.8821   -0.4906 H         1 ****        0.0000 
     65 C65         1.6497    5.1895    1.4305 C.3       1 ****        0.0000 
     66 H66         2.1756    6.1160    1.6409 H         1 ****        0.0000 
     67 C67         0.6974    4.5860    2.3619 C.2       1 ****        0.0000 
     68 H68         0.5104    4.9861    3.3543 H         1 ****        0.0000 
     69 C69         0.0181    3.4265    2.0314 C.2       1 ****        0.0000 
     70 H70        -0.6153    2.9183    2.7519 H         1 ****        0.0000 
@<TRIPOS>BOND
     1    1    2 1    
     2    1    3 1    
     3    1    4 1    
     4    1    5 1    
     5    5    6 1    
     6    5   10 1    
     7    5   14 1    
     8    6    7 1    
     9    6    8 1    
    10    6    9 1    
    11   10   11 1    
    12   10   12 1    
    13   10   13 1    
    14   14   15 1    
    15   15   16 2    
    16   15   17 am   BACKBONE|DICT|INTERRES
    17   17   18 1    
    18   17   19 1    
    19   19   20 1    
    20   19   24 1    
    21   19   25 1    
    22   20   21 am   BACKBONE|DICT|INTERRES
    23   20   23 2    
    24   21   22 1    
    25   21   58 1    
    26   25   26 1    
    27   25   27 1    
    28   25   28 1    
    29   28   29 1    
    30   28   33 1    
    31   29   30 2    
    32   29   32 1    
    33   30   31 1    
    34   30   37 1    
    35   33   34 1    
    36   33   35 2    
    37   35   36 1    
    38   35   37 1    
    39   37   38 1    
    40   38   39 1    
    41   39   40 1    
    42   39   44 1    
    43   40   41 1    
    44   40   43 1    
    45   41   42 1    
    46   41   48 1    
    47   44   45 1    
    48   44   46 1    
    49   46   47 1    
    50   46   48 1    
    51   48   49 1    
    52   49   50 2    
    53   49   51 1    
    54   51   52 1    
    55   51   53 1    
    56   51   54 1    
    57   54   55 1    
    58   54   56 am   BACKBONE|DICT|INTERRES
    59   56   57 2    
    60   56   58 1    
    61   58   59 1    
    62   58   60 1    
    63   60   61 1    
    64   60   69 1    
    65   61   62 1    
    66   61   63 2    
    67   63   64 1    
    68   63   65 1    
    69   65   66 1    
    70   65   67 1    
    71   67   68 1    
    72   67   69 2    
    73   69   70 1    
@<TRIPOS>SUBSTRUCTURE
     1 ****        1 GROUP             0       ****    0 ROOT    
@<TRIPOS>MOLECULE
Cpd2-5000
70   73    1
SMALL
USER_CHARGES


@<TRIPOS>ATOM
      1 C1          6.0805    0.2641   -2.3833 C.3       1 ****        0.0000 
      2 H2          6.9355    0.4633   -3.0401 H         1 ****        0.0000 
      3 H3          5.5917   -0.5767   -2.8913 H         1 ****        0.0000 
      4 H4          5.4440    1.1551   -2.3118 H         1 ****        0.0000 
      5 C5          6.5177   -0.1868   -0.9523 C.3       1 ****        0.0000 
      6 C6          7.1195   -1.5596   -0.9779 C.3       1 ****        0.0000 
      7 H7          6.4901   -2.3319   -1.4372 H         1 ****        0.0000 
      8 H8          7.9241   -1.5398   -1.7234 H         1 ****        0.0000 
      9 H9          7.4902   -1.9215   -0.0118 H         1 ****        0.0000 
     10 C10         7.5144    0.8099   -0.3991 C.3       1 ****        0.0000 
     11 H11         8.5315    0.7221   -0.8012 H         1 ****        0.0000 
     12 H12         7.2276    1.8442   -0.6254 H         1 ****        0.0000 
     13 H13         7.6376    0.6000    0.6697 H         1 ****        0.0000 
     14 O14         5.4363   -0.1566   -0.0799 O.3       1 ****        0.0000 
     15 C15         4.3497   -0.8882   -0.2883 C.2       1 ****        0.0000 
     16 O16         4.1308   -1.8145   -1.0528 O.2       1 ****        0.0000 
     17 N17         3.4357   -0.4212    0.5929 N.am      1 ****        0.0000 
     18 H18         3.6709    0.3827    1.1628 H         1 ****        0.0000 
     19 C19         2.0427   -0.9433    0.5639 C.3       1 ****        0.0000 
     20 C20         1.0412    0.1203    1.0062 C.2       1 ****        0.0000 
     21 N21         0.2104    0.5585    0.0066 N.am      1 ****        0.0000 
     22 H22         0.3767    0.3733   -0.9754 H         1 ****        0.0000 
     23 O23         1.0230    0.5821    2.1401 O.2       1 ****        0.0000 
     24 H24         1.9384   -1.0103   -0.5255 H         1 ****        0.0000 
     25 C25         1.9576   -2.2798    1.2821 C.3       1 ****        0.0000 
     26 H26         2.2814   -2.1419    2.3211 H         1 ****        0.0000 
     27 H27         2.7190   -3.0137    0.9919 H         1 ****        0.0000 
     28 C28         0.5807   -2.9249    1.2172 C.2       1 ****        0.0000 
     29 C29        -0.4013   -2.6886    2.1468 C.2       1 ****        0.0000 
     30 C30        -1.7485   -2.9116    1.8817 C.3       1 ****        0.0000 
     31 H31        -2.4659   -2.5262    2.6003 H         1 ****        0.0000 
     32 H32        -0.3123   -2.0689    3.0346 H         1 ****        0.0000 
     33 C33         0.2130   -3.6732    0.0840 C.3       1 ****        0.0000 
     34 H34         0.9219   -3.7871   -0.7311 H         1 ****        0.0000 
     35 C35        -1.1130   -4.0873   -0.1244 C.3       1 ****        0.0000 
     36 H36        -1.3542   -4.5908   -1.0561 H         1 ****        0.0000 
     37 C37        -2.1426   -3.5959    0.7277 C.3       1 ****        0.0000 
     38 O38        -3.4595   -3.6145    0.3636 O.3       1 ****        0.0000 
     39 C39        -4.0469   -2.5324   -0.1902 C.ar      1 ****        0.0000 
     40 C40        -5.2414   -2.1045    0.3020 C.1       1 ****        0.0000 
     41 C41        -5.7270   -0.8854   -0.1105 C.ar      1 ****        0.0000 
     42 H42        -6.5431   -0.4922    0.4876 H         1 ****        0.0000 
     43 H43        -5.6996   -2.5801    1.1631 H         1 ****        0.0000 
     44 C44        -3.3370   -1.8212   -1.2032 C.ar      1 ****        0.0000 
     45 H45        -2.4410   -2.2182   -1.6708 H         1 ****        0.0000 
     46 C46        -3.9238   -0.6785   -1.7131 C.1       1 ****        0.0000 
     47 H47        -3.5020   -0.2323   -2.6081 H         1 ****        0.0000 
     48 C48        -5.0251   -0.1439   -1.0656 C.ar      1 ****        0.0000 
     49 C49        -5.3715    1.2821   -1.1603 C.2       1 ****        0.0000 
     50 O50        -6.4589    1.7016   -0.8063 O.2       1 ****        0.0000 
     51 C51        -4.2857    2.3901   -1.4773 C.3       1 ****        0.0000 
     52 H52        -3.9324    2.3288   -2.5138 H         1 ****        0.0000 
     53 H53        -4.7762    3.3723   -1.4768 H         1 ****        0.0000 
     54 N54        -3.0991    2.3304   -0.5981 N.am      1 ****        0.0000 
     55 H55        -3.1786    2.7463    0.3220 H         1 ****        0.0000 
     56 C56        -1.8821    1.7487   -0.9534 C.2       1 ****        0.0000 
     57 O57        -1.5725    1.3845   -2.0658 O.2       1 ****        0.0000 
     58 C58        -0.9025    1.5738    0.2388 C.3       1 ****        0.0000 
     59 H59        -1.4833    1.2652    1.1165 H         1 ****        0.0000 
     60 C60        -0.3897    2.8604    0.6043 C.3       1 ****        0.0000 
     61 C61        -0.4431    3.2677    1.9488 C.2       1 ****        0.0000 
     62 H62        -1.0645    2.7441    2.6690 H         1 ****        0.0000 
     63 C63         0.2220    4.3896    2.3816 C.1       1 ****        0.0000 
     64 H64         0.2972    4.6649    3.4294 H         1 ****        0.0000 
     65 C65         0.9065    5.1753    1.5114 C.2       1 ****        0.0000 
     66 H66         1.4572    6.0114    1.9330 H         1 ****        0.0000 
     67 C67         0.8640    4.8695    0.1408 C.3       1 ****        0.0000 
     68 H68         1.3615    5.4884   -0.5992 H         1 ****        0.0000 
     69 C69         0.1794    3.7468   -0.3020 C.3       1 ****        0.0000 
     70 H70         0.1876    3.3766   -1.3235 H         1 ****        0.0000 
@<TRIPOS>BOND
     1    1    2 1    
     2    1    3 1    
     3    1    4 1    
     4    1    5 1    
     5    5    6 1    
     6    5   10 1    
     7    5   14 1    
     8    6    7 1    
     9    6    8 1    
    10    6    9 1    
    11   10   11 1    
    12   10   12 1    
    13   10   13 1    
    14   14   15 1    
    15   15   16 2    
    16   15   17 am   BACKBONE|DICT|INTERRES
    17   17   18 1    
    18   17   19 1    
    19   19   20 1    
    20   19   24 1    
    21   19   25 1    
    22   20   21 am   BACKBONE|DICT|INTERRES
    23   20   23 2    
    24   21   22 1    
    25   21   58 1    
    26   25   26 1    
    27   25   27 1    
    28   25   28 1    
    29   28   29 2    
    30   28   33 1    
    31   29   30 1    
    32   29   32 1    
    33   30   31 1    
    34   30   37 1    
    35   33   34 1    
    36   33   35 1    
    37   35   36 1    
    38   35   37 1    
    39   37   38 1    
    40   38   39 1    
    41   39   40 ar   
    42   39   44 ar   
    43   40   41 ar   
    44   40   43 1    
    45   41   42 1    
    46   41   48 ar   
    47   44   45 1    
    48   44   46 ar   
    49   46   47 1    
    50   46   48 ar   
    51   48   49 1    
    52   49   50 2    
    53   49   51 1    
    54   51   52 1    
    55   51   53 1    
    56   51   54 1    
    57   54   55 1    
    58   54   56 am   BACKBONE|DICT|INTERRES
    59   56   57 2    
    60   56   58 1    
    61   58   59 1    
    62   58   60 1    
    63   60   61 1    
    64   60   69 1    
    65   61   62 1    
    66   61   63 2    
    67   63   64 1    
    68   63   65 2    
    69   65   66 1    
    70   65   67 1    
    71   67   68 1    
    72   67   69 1    
    73   69   70 1    
@<TRIPOS>SUBSTRUCTURE
     1 ****        1 GROUP             0       ****    0 ROOT    
