@<TRIPOS>MOLECULE
Cpd2-1
70   73    1
SMALL
USER_CHARGES


@<TRIPOS>ATOM
      1 N1        -21.6462    7.0543   16.5954 N.am      1 UNK         0.0000 
      2 O2        -23.1529    5.2483   18.9872 O.2       1 UNK         0.0000 
      3 C3        -17.9542    8.2440   19.5211 C.ar      1 UNK         0.0000 
      4 N4        -20.5274   10.4484   15.7642 N.am      1 UNK         0.0000 
      5 O5        -18.4468   11.3488   15.9859 O.2       1 UNK         0.0000 
      6 C6        -17.4813    7.8156   18.2831 C.ar      1 UNK         0.0000 
      7 N7        -21.5894   12.9195   14.9495 N.am      1 UNK         0.0000 
      8 O8        -22.5407    8.6473   15.2475 O.2       1 UNK         0.0000 
      9 C9        -19.1658    8.9224   19.6212 C.ar      1 UNK         0.0000 
     10 O10       -21.0523   12.4688   12.7156 O.2       1 UNK         0.0000 
     11 C11       -18.2267    8.0680   17.1344 C.ar      1 UNK         0.0000 
     12 O12       -23.2430   11.4759   20.5962 O.3       1 UNK         0.0000 
     13 C13       -19.9076    9.1776   18.4719 C.ar      1 UNK         0.0000 
     14 C14       -20.2600   12.7108   18.8895 C.ar      1 UNK         0.0000 
     15 C15       -22.2226   13.7463   17.9220 C.ar      1 UNK         0.0000 
     16 C16       -23.9644    8.6892   18.3128 C.ar      1 UNK         0.0000 
     17 C17       -22.8385    7.8459   20.2793 C.ar      1 UNK         0.0000 
     18 C18       -21.0545   12.1235   19.8679 C.ar      1 UNK         0.0000 
     19 C19       -23.0186   13.1518   18.8964 C.ar      1 UNK         0.0000 
     20 C20       -23.9883    9.9602   18.8734 C.ar      1 UNK         0.0000 
     21 C21       -22.8588    9.1225   20.8392 C.ar      1 UNK         0.0000 
     22 C22       -20.0250   13.8872   16.6618 C.3       1 UNK         0.0000 
     23 C23       -22.8489    6.2476   16.8352 C.3       1 UNK         0.0000 
     24 C24       -20.8535   13.4667   17.8761 C.ar      1 UNK         0.0000 
     25 C25       -23.3361    7.6364   18.9862 C.ar      1 UNK         0.0000 
     26 C26       -19.4431    8.7542   17.2205 C.ar      1 UNK         0.0000 
     27 C27       -22.4409   12.2834   19.8238 C.ar      1 UNK         0.0000 
     28 C28       -23.3900   10.1914   20.1168 C.ar      1 UNK         0.0000 
     29 C29       -23.2148    6.2928   18.3372 C.2       1 UNK         0.0000 
     30 C30       -19.6506   11.4761   15.7611 C.2       1 UNK         0.0000 
     31 C31       -21.5925    8.2133   15.9067 C.2       1 UNK         0.0000 
     32 C32       -21.8741   12.6828   13.6093 C.2       1 UNK         0.0000 
     33 C33       -20.2061   12.9004   15.4668 C.3       1 UNK         0.0000 
     34 C34       -20.2575    9.0112   15.9602 C.3       1 UNK         0.0000 
     35 H35       -19.5661   13.3037   14.6780 H         1 UNK         0.0000 
     36 H36       -19.6842    8.6988   15.0849 H         1 UNK         0.0000 
     37 H37       -17.3770    8.0456   20.4122 H         1 UNK         0.0000 
     38 H38       -16.5416    7.2877   18.2144 H         1 UNK         0.0000 
     39 H39       -19.5301    9.2459   20.5850 H         1 UNK         0.0000 
     40 H40       -17.8556    7.7297   16.1778 H         1 UNK         0.0000 
     41 H41       -20.8523    9.6943   18.5493 H         1 UNK         0.0000 
     42 H42       -19.2001   12.5018   18.8702 H         1 UNK         0.0000 
     43 H43       -22.6852   14.3477   17.1530 H         1 UNK         0.0000 
     44 H44       -24.3995    8.5466   17.3342 H         1 UNK         0.0000 
     45 H45       -22.3772    7.0406   20.8332 H         1 UNK         0.0000 
     46 H46       -20.6066   11.4632   20.5957 H         1 UNK         0.0000 
     47 H47       -24.0899   13.2873   18.8706 H         1 UNK         0.0000 
     48 H48       -24.4241   10.7754   18.3152 H         1 UNK         0.0000 
     49 H49       -22.4076    9.2918   21.8059 H         1 UNK         0.0000 
     50 H50       -20.3121   14.8978   16.3663 H         1 UNK         0.0000 
     51 H51       -18.9723   13.9575   16.9428 H         1 UNK         0.0000 
     52 H52       -22.6549    5.2225   16.5164 H         1 UNK         0.0000 
     53 H53       -23.7065    6.5789   16.2471 H         1 UNK         0.0000 
     54 H54       -20.8045    6.7318   17.0512 H         1 UNK         0.0000 
     55 H55       -21.4909   10.6596   15.5470 H         1 UNK         0.0000 
     56 H56       -22.3474   13.0337   15.6070 H         1 UNK         0.0000 
     57 O57       -23.2253   12.6923   13.4493 O.3       1 UNK         0.0000 
     58 C58       -23.9250   12.3730   12.2315 C.3       1 UNK         0.0000 
     59 C59       -23.5810   13.3745   11.1006 C.3       1 UNK         0.0000 
     60 H60       -23.7244   14.4050   11.4280 H         1 UNK         0.0000 
     61 H61       -22.5476   13.2836   10.7668 H         1 UNK         0.0000 
     62 H62       -24.2142   13.2183   10.2263 H         1 UNK         0.0000 
     63 C63       -25.4170   12.5113   12.5999 C.3       1 UNK         0.0000 
     64 H64       -26.0634   12.2901   11.7495 H         1 UNK         0.0000 
     65 H65       -25.6944   11.8318   13.4074 H         1 UNK         0.0000 
     66 H66       -25.6537   13.5217   12.9370 H         1 UNK         0.0000 
     67 C67       -23.6412   10.9149   11.7889 C.3       1 UNK         0.0000 
     68 H68       -22.6069   10.7720   11.4764 H         1 UNK         0.0000 
     69 H69       -23.8312   10.2111   12.6005 H         1 UNK         0.0000 
     70 H70       -24.2732   10.6243   10.9488 H         1 UNK         0.0000 
@<TRIPOS>BOND
     1    1   31 am   BACKBONE|DICT|INTERRES
     2    1   23 1    
     3    1   54 1    
     4    2   29 2    
     5    3   37 1    
     6    3    9 ar   
     7    3    6 ar   
     8    4   30 am   BACKBONE|DICT|INTERRES
     9    4   55 1    
    10    4   34 1    
    11    5   30 2    
    12    6   11 ar   
    13    6   38 1    
    14    7   56 1    
    15    7   32 am   BACKBONE|DICT|INTERRES
    16    7   33 1    
    17    8   31 2    
    18    9   39 1    
    19    9   13 ar   
    20   10   32 2    
    21   11   26 ar   
    22   11   40 1    
    23   12   27 1    
    24   12   28 1    
    25   13   41 1    
    26   13   26 ar   
    27   14   18 ar   
    28   14   24 ar   
    29   14   42 1    
    30   15   19 ar   
    31   15   24 ar   
    32   15   43 1    
    33   16   20 ar   
    34   16   25 ar   
    35   16   44 1    
    36   17   21 ar   
    37   17   25 ar   
    38   17   45 1    
    39   18   46 1    
    40   18   27 ar   
    41   19   27 ar   
    42   19   47 1    
    43   20   48 1    
    44   20   28 ar   
    45   21   28 ar   
    46   21   49 1    
    47   22   50 1    
    48   22   24 1    
    49   22   33 1    
    50   22   51 1    
    51   23   29 1    
    52   23   52 1    
    53   23   53 1    
    54   25   29 1    
    55   26   34 1    
    56   30   33 1    
    57   31   34 1    
    58   32   57 1    
    59   33   35 1    
    60   34   36 1    
    61   57   58 1    
    62   58   63 1    
    63   58   59 1    
    64   58   67 1    
    65   59   60 1    
    66   59   61 1    
    67   59   62 1    
    68   63   65 1    
    69   63   66 1    
    70   63   64 1    
    71   67   69 1    
    72   67   68 1    
    73   67   70 1    
@<TRIPOS>SUBSTRUCTURE
     1 UNK         1 GROUP             0       ****    0 ROOT    
@<TRIPOS>MOLECULE
Cpd2-2
70   73    1
SMALL
USER_CHARGES


@<TRIPOS>ATOM
      1 N1        -21.6401    7.0665   16.5988 N.am      1 UNK         0.0000 
      2 O2        -23.1395    5.2492   18.9870 O.2       1 UNK         0.0000 
      3 C3        -17.9102    8.2704   19.4977 C.ar      1 UNK         0.0000 
      4 N4        -20.5215   10.4650   15.7633 N.am      1 UNK         0.0000 
      5 O5        -18.4406   11.3678   15.9551 O.2       1 UNK         0.0000 
      6 C6        -17.4318    7.8780   18.2499 C.ar      1 UNK         0.0000 
      7 N7        -21.5853   12.8565   14.9378 N.am      1 UNK         0.0000 
      8 O8        -22.5586    8.6848   15.3001 O.2       1 UNK         0.0000 
      9 C9        -19.1417    8.9094   19.6158 C.ar      1 UNK         0.0000 
     10 O10       -21.6872   15.0241   14.0851 O.2       1 UNK         0.0000 
     11 C11       -18.1913    8.1270   17.1098 C.ar      1 UNK         0.0000 
     12 O12       -23.2550   11.4739   20.5957 O.3       1 UNK         0.0000 
     13 C13       -19.8974    9.1615   18.4750 C.ar      1 UNK         0.0000 
     14 C14       -20.2618   12.6595   18.8720 C.ar      1 UNK         0.0000 
     15 C15       -22.2094   13.7438   17.9310 C.ar      1 UNK         0.0000 
     16 C16       -23.9846    8.6831   18.3237 C.ar      1 UNK         0.0000 
     17 C17       -22.8337    7.8474   20.2796 C.ar      1 UNK         0.0000 
     18 C18       -21.0596   12.0823   19.8533 C.ar      1 UNK         0.0000 
     19 C19       -23.0103   13.1559   18.9052 C.ar      1 UNK         0.0000 
     20 C20       -24.0142    9.9533   18.8862 C.ar      1 UNK         0.0000 
     21 C21       -22.8591    9.1230   20.8406 C.ar      1 UNK         0.0000 
     22 C22       -20.0121   13.8654   16.6617 C.3       1 UNK         0.0000 
     23 C23       -22.8406    6.2552   16.8377 C.3       1 UNK         0.0000 
     24 C24       -20.8471   13.4356   17.8694 C.ar      1 UNK         0.0000 
     25 C25       -23.3398    7.6356   18.9903 C.ar      1 UNK         0.0000 
     26 C26       -19.4272    8.7746   17.2141 C.ar      1 UNK         0.0000 
     27 C27       -22.4431   12.2697   19.8217 C.ar      1 UNK         0.0000 
     28 C28       -23.4048   10.1878   20.1230 C.ar      1 UNK         0.0000 
     29 C29       -23.2091    6.2945   18.3389 C.2       1 UNK         0.0000 
     30 C30       -19.6461   11.4960   15.7394 C.2       1 UNK         0.0000 
     31 C31       -21.5965    8.2367   15.9289 C.2       1 UNK         0.0000 
     32 C32       -22.2122   13.9377   14.3259 C.2       1 UNK         0.0000 
     33 C33       -20.1947   12.9197   15.4226 C.3       1 UNK         0.0000 
     34 C34       -20.2563    9.0279   15.9633 C.3       1 UNK         0.0000 
     35 H35       -19.5853   13.3027   14.6010 H         1 UNK         0.0000 
     36 H36       -19.6966    8.7078   15.0822 H         1 UNK         0.0000 
     37 H37       -17.3222    8.0747   20.3821 H         1 UNK         0.0000 
     38 H38       -16.4768    7.3804   18.1671 H         1 UNK         0.0000 
     39 H39       -19.5101    9.2050   20.5869 H         1 UNK         0.0000 
     40 H40       -17.8154    7.8165   16.1457 H         1 UNK         0.0000 
     41 H41       -20.8570    9.6475   18.5660 H         1 UNK         0.0000 
     42 H42       -19.2059   12.4318   18.8444 H         1 UNK         0.0000 
     43 H43       -22.6661   14.3669   17.1765 H         1 UNK         0.0000 
     44 H44       -24.4269    8.5379   17.3488 H         1 UNK         0.0000 
     45 H45       -22.3601    7.0456   20.8283 H         1 UNK         0.0000 
     46 H46       -20.6189   11.4094   20.5739 H         1 UNK         0.0000 
     47 H47       -24.0788   13.3139   18.8890 H         1 UNK         0.0000 
     48 H48       -24.4610   10.7668   18.3344 H         1 UNK         0.0000 
     49 H49       -22.3988    9.2959   21.8023 H         1 UNK         0.0000 
     50 H50       -20.2783   14.8907   16.4019 H         1 UNK         0.0000 
     51 H51       -18.9592   13.9183   16.9459 H         1 UNK         0.0000 
     52 H52       -22.6431    5.2317   16.5163 H         1 UNK         0.0000 
     53 H53       -23.6990    6.5838   16.2492 H         1 UNK         0.0000 
     54 H54       -20.7916    6.7334   17.0339 H         1 UNK         0.0000 
     55 H55       -21.4868   10.6751   15.5535 H         1 UNK         0.0000 
     56 H56       -22.1378   12.0497   15.1901 H         1 UNK         0.0000 
     57 O57       -23.5325   13.7002   14.0074 O.3       1 UNK         0.0000 
     58 C58       -24.3021   12.4809   14.1428 C.3       1 UNK         0.0000 
     59 C59       -25.6953   12.8706   13.6043 C.3       1 UNK         0.0000 
     60 H60       -26.1357   13.6833   14.1844 H         1 UNK         0.0000 
     61 H61       -25.6447   13.2092   12.5681 H         1 UNK         0.0000 
     62 H62       -26.3907   12.0307   13.6389 H         1 UNK         0.0000 
     63 C63       -24.4491   12.0293   15.6195 C.3       1 UNK         0.0000 
     64 H64       -25.2063   11.2507   15.7213 H         1 UNK         0.0000 
     65 H65       -23.5293   11.6189   16.0342 H         1 UNK         0.0000 
     66 H66       -24.7517   12.8599   16.2581 H         1 UNK         0.0000 
     67 C67       -23.7279   11.3412   13.2630 C.3       1 UNK         0.0000 
     68 H68       -23.5882   11.6701   12.2325 H         1 UNK         0.0000 
     69 H69       -22.7637   10.9785   13.6163 H         1 UNK         0.0000 
     70 H70       -24.3988   10.4814   13.2424 H         1 UNK         0.0000 
@<TRIPOS>BOND
     1    1   54 1    
     2    1   23 1    
     3    1   31 am   BACKBONE|DICT|INTERRES
     4    2   29 2    
     5    3   37 1    
     6    3    9 ar   
     7    3    6 ar   
     8    4   55 1    
     9    4   30 am   BACKBONE|DICT|INTERRES
    10    4   34 1    
    11    5   30 2    
    12    6   11 ar   
    13    6   38 1    
    14    7   56 1    
    15    7   32 am   BACKBONE|DICT|INTERRES
    16    7   33 1    
    17    8   31 2    
    18    9   39 1    
    19    9   13 ar   
    20   10   32 2    
    21   11   26 ar   
    22   11   40 1    
    23   12   27 1    
    24   12   28 1    
    25   13   41 1    
    26   13   26 ar   
    27   14   18 ar   
    28   14   24 ar   
    29   14   42 1    
    30   15   19 ar   
    31   15   24 ar   
    32   15   43 1    
    33   16   20 ar   
    34   16   25 ar   
    35   16   44 1    
    36   17   45 1    
    37   17   21 ar   
    38   17   25 ar   
    39   18   46 1    
    40   18   27 ar   
    41   19   27 ar   
    42   19   47 1    
    43   20   28 ar   
    44   20   48 1    
    45   21   49 1    
    46   21   28 ar   
    47   22   51 1    
    48   22   50 1    
    49   22   24 1    
    50   22   33 1    
    51   23   29 1    
    52   23   52 1    
    53   23   53 1    
    54   25   29 1    
    55   26   34 1    
    56   30   33 1    
    57   31   34 1    
    58   32   57 1    
    59   33   35 1    
    60   34   36 1    
    61   57   58 1    
    62   58   59 1    
    63   58   63 1    
    64   58   67 1    
    65   59   60 1    
    66   59   61 1    
    67   59   62 1    
    68   63   66 1    
    69   63   64 1    
    70   63   65 1    
    71   67   68 1    
    72   67   69 1    
    73   67   70 1    
@<TRIPOS>SUBSTRUCTURE
     1 UNK         1 GROUP             0       ****    0 ROOT    
@<TRIPOS>MOLECULE
Cpd2-3
70   73    1
SMALL
USER_CHARGES


@<TRIPOS>ATOM
      1 N1        -22.1832    7.9169   16.1672 N.am      1 UNK         0.0000 
      2 O2        -23.0650    5.5490   18.4477 O.2       1 UNK         0.0000 
      3 C3        -17.2620    8.9384   19.4803 C.ar      1 UNK         0.0000 
      4 N4        -20.5506   10.1991   15.8586 N.am      1 UNK         0.0000 
      5 O5        -18.7134   11.5234   15.6804 O.2       1 UNK         0.0000 
      6 C6        -18.6022    9.2811   19.6391 C.ar      1 UNK         0.0000 
      7 N7        -22.2380   12.3116   15.2294 N.am      1 UNK         0.0000 
      8 O8        -20.3706    6.5610   16.2743 O.2       1 UNK         0.0000 
      9 C9        -16.7640    8.5842   18.2287 C.ar      1 UNK         0.0000 
     10 O10       -24.3985   12.9178   14.6686 O.2       1 UNK         0.0000 
     11 C11       -19.4497    9.2741   18.5352 C.ar      1 UNK         0.0000 
     12 O12       -23.1170   11.5110   20.8562 O.3       1 UNK         0.0000 
     13 C13       -17.6132    8.5734   17.1256 C.ar      1 UNK         0.0000 
     14 C14       -20.4027   12.6715   18.7249 C.ar      1 UNK         0.0000 
     15 C15       -22.4568   13.7815   18.0856 C.ar      1 UNK         0.0000 
     16 C16       -24.2149    8.9580   18.4720 C.ar      1 UNK         0.0000 
     17 C17       -22.6838    7.9637   20.0604 C.ar      1 UNK         0.0000 
     18 C18       -21.0429   12.1286   19.8327 C.ar      1 UNK         0.0000 
     19 C19       -23.0991   13.2342   19.1914 C.ar      1 UNK         0.0000 
     20 C20       -24.1948   10.1422   19.1966 C.ar      1 UNK         0.0000 
     21 C21       -22.6506    9.1589   20.7769 C.ar      1 UNK         0.0000 
     22 C22       -20.5227   13.7633   16.4471 C.3       1 UNK         0.0000 
     23 C23       -23.2061    6.9038   16.4721 C.3       1 UNK         0.0000 
     24 C24       -21.1336   13.4275   17.8065 C.ar      1 UNK         0.0000 
     25 C25       -23.4080    7.8849   18.8639 C.ar      1 UNK         0.0000 
     26 C26       -18.9609    8.9224   17.2700 C.ar      1 UNK         0.0000 
     27 C27       -22.4121   12.3374   20.0115 C.ar      1 UNK         0.0000 
     28 C28       -23.3589   10.2676   20.3110 C.ar      1 UNK         0.0000 
     29 C29       -23.3152    6.6686   17.9997 C.2       1 UNK         0.0000 
     30 C30       -19.9379   11.3898   15.6571 C.2       1 UNK         0.0000 
     31 C31       -20.8533    7.6895   16.1628 C.2       1 UNK         0.0000 
     32 C32       -23.1953   13.1742   14.6925 C.2       1 UNK         0.0000 
     33 C33       -20.8034   12.6519   15.3701 C.3       1 UNK         0.0000 
     34 C34       -19.8815    8.8962   16.0618 C.3       1 UNK         0.0000 
     35 H35       -20.4556   13.0153   14.4007 H         1 UNK         0.0000 
     36 H36       -19.2931    8.7280   15.1568 H         1 UNK         0.0000 
     37 H37       -16.6033    8.9445   20.3361 H         1 UNK         0.0000 
     38 H38       -18.9825    9.5493   20.6136 H         1 UNK         0.0000 
     39 H39       -15.7237    8.3169   18.1148 H         1 UNK         0.0000 
     40 H40       -20.4901    9.5356   18.6608 H         1 UNK         0.0000 
     41 H41       -17.2210    8.2943   16.1585 H         1 UNK         0.0000 
     42 H42       -19.3716   12.4151   18.5289 H         1 UNK         0.0000 
     43 H43       -23.0198   14.3907   17.3936 H         1 UNK         0.0000 
     44 H44       -24.8179    8.9092   17.5768 H         1 UNK         0.0000 
     45 H45       -22.0769    7.1351   20.3972 H         1 UNK         0.0000 
     46 H46       -20.5086   11.4478   20.4783 H         1 UNK         0.0000 
     47 H47       -24.1553   13.4079   19.3369 H         1 UNK         0.0000 
     48 H48       -24.7628   10.9888   18.8401 H         1 UNK         0.0000 
     49 H49       -22.0107    9.2474   21.6426 H         1 UNK         0.0000 
     50 H50       -20.9253   14.7207   16.1144 H         1 UNK         0.0000 
     51 H51       -19.4522   13.9462   16.5593 H         1 UNK         0.0000 
     52 H52       -22.9977    5.9674   15.9501 H         1 UNK         0.0000 
     53 H53       -24.1672    7.2401   16.0831 H         1 UNK         0.0000 
     54 H54       -22.5152    8.8620   16.0394 H         1 UNK         0.0000 
     55 H55       -21.5577   10.1590   15.7986 H         1 UNK         0.0000 
     56 H56       -22.5536   11.4593   15.6694 H         1 UNK         0.0000 
     57 O57       -22.6366   14.3255   14.2050 O.3       1 UNK         0.0000 
     58 C58       -23.3607   15.4494   13.6720 C.3       1 UNK         0.0000 
     59 C59       -22.2618   16.4670   13.3012 C.3       1 UNK         0.0000 
     60 H60       -21.6687   16.7501   14.1724 H         1 UNK         0.0000 
     61 H61       -21.5699   16.0576   12.5635 H         1 UNK         0.0000 
     62 H62       -22.6848   17.3809   12.8819 H         1 UNK         0.0000 
     63 C63       -24.2941   16.0717   14.7407 C.3       1 UNK         0.0000 
     64 H64       -24.7409   17.0010   14.3853 H         1 UNK         0.0000 
     65 H65       -25.1129   15.4056   15.0125 H         1 UNK         0.0000 
     66 H66       -23.7482   16.3004   15.6571 H         1 UNK         0.0000 
     67 C67       -24.1524   15.0603   12.3988 C.3       1 UNK         0.0000 
     68 H68       -23.5092   14.5680   11.6683 H         1 UNK         0.0000 
     69 H69       -24.9750   14.3788   12.6145 H         1 UNK         0.0000 
     70 H70       -24.5831   15.9384   11.9158 H         1 UNK         0.0000 
@<TRIPOS>BOND
     1    1   23 1    
     2    1   54 1    
     3    1   31 am   BACKBONE|DICT|INTERRES
     4    2   29 2    
     5    3   37 1    
     6    3    6 ar   
     7    3    9 ar   
     8    4   30 am   BACKBONE|DICT|INTERRES
     9    4   55 1    
    10    4   34 1    
    11    5   30 2    
    12    6   38 1    
    13    6   11 ar   
    14    7   32 am   BACKBONE|DICT|INTERRES
    15    7   56 1    
    16    7   33 1    
    17    8   31 2    
    18    9   13 ar   
    19    9   39 1    
    20   10   32 2    
    21   11   40 1    
    22   11   26 ar   
    23   12   27 1    
    24   12   28 1    
    25   13   26 ar   
    26   13   41 1    
    27   14   18 ar   
    28   14   24 ar   
    29   14   42 1    
    30   15   19 ar   
    31   15   24 ar   
    32   15   43 1    
    33   16   20 ar   
    34   16   25 ar   
    35   16   44 1    
    36   17   21 ar   
    37   17   25 ar   
    38   17   45 1    
    39   18   46 1    
    40   18   27 ar   
    41   19   27 ar   
    42   19   47 1    
    43   20   48 1    
    44   20   28 ar   
    45   21   28 ar   
    46   21   49 1    
    47   22   50 1    
    48   22   24 1    
    49   22   33 1    
    50   22   51 1    
    51   23   53 1    
    52   23   29 1    
    53   23   52 1    
    54   25   29 1    
    55   26   34 1    
    56   30   33 1    
    57   31   34 1    
    58   32   57 1    
    59   33   35 1    
    60   34   36 1    
    61   57   58 1    
    62   58   63 1    
    63   58   59 1    
    64   58   67 1    
    65   59   62 1    
    66   59   60 1    
    67   59   61 1    
    68   63   64 1    
    69   63   65 1    
    70   63   66 1    
    71   67   69 1    
    72   67   68 1    
    73   67   70 1    
@<TRIPOS>SUBSTRUCTURE
     1 UNK         1 GROUP             0       ****    0 ROOT    
@<TRIPOS>MOLECULE
Cpd2-4-MEC
70   73    1
SMALL
USER_CHARGES


@<TRIPOS>ATOM
      1 N1        -22.0514    7.3333   16.3509 N.am      1 UNK         0.0000 
      2 O2        -24.5743    5.7797   17.9474 O.2       1 UNK         0.0000 
      3 C3        -19.5572    7.9319   11.5309 C.ar      1 UNK         0.0000 
      4 N4        -20.0362   10.3639   15.9411 N.am      1 UNK         0.0000 
      5 O5        -20.6750   12.0148   14.5087 O.2       1 UNK         0.0000 
      6 C6        -20.9162    7.9953   11.8269 C.ar      1 UNK         0.0000 
      7 N7        -18.0475   13.0486   15.1993 N.am      1 UNK         0.0000 
      8 O8        -19.9797    7.8484   17.1462 O.2       1 UNK         0.0000 
      9 C9        -18.6074    8.2953   12.4819 C.ar      1 UNK         0.0000 
     10 O10       -16.5196   13.8856   16.7620 O.2       1 UNK         0.0000 
     11 C11       -21.3289    8.4268   13.0845 C.ar      1 UNK         0.0000 
     12 O12       -23.2250   11.4560   20.6326 O.3       1 UNK         0.0000 
     13 C13       -19.0204    8.7262   13.7395 C.ar      1 UNK         0.0000 
     14 C14       -20.2833   13.0361   19.1427 C.ar      1 UNK         0.0000 
     15 C15       -22.1531   13.2211   17.6139 C.ar      1 UNK         0.0000 
     16 C16       -22.3254    8.0728   19.5621 C.ar      1 UNK         0.0000 
     17 C17       -24.6547    8.4843   19.0496 C.ar      1 UNK         0.0000 
     18 C18       -21.1205   12.4713   20.1001 C.ar      1 UNK         0.0000 
     19 C19       -22.9886   12.6529   18.5686 C.ar      1 UNK         0.0000 
     20 C20       -22.2502    9.3015   20.2046 C.ar      1 UNK         0.0000 
     21 C21       -24.5769    9.7193   19.6891 C.ar      1 UNK         0.0000 
     22 C22       -19.8416   13.8077   16.7749 C.3       1 UNK         0.0000 
     23 C23       -22.3369    6.1578   17.1861 C.3       1 UNK         0.0000 
     24 C24       -20.7908   13.3670   17.8837 C.ar      1 UNK         0.0000 
     25 C25       -23.5084    7.6901   18.9212 C.ar      1 UNK         0.0000 
     26 C26       -20.3869    8.7959   14.0523 C.ar      1 UNK         0.0000 
     27 C27       -22.4605   12.2307   19.7918 C.ar      1 UNK         0.0000 
     28 C28       -23.3595   10.1517   20.2154 C.ar      1 UNK         0.0000 
     29 C29       -23.5461    6.4395   18.1052 C.2       1 UNK         0.0000 
     30 C30       -19.9909   11.6209   15.4560 C.2       1 UNK         0.0000 
     31 C31       -20.9339    8.0855   16.4020 C.2       1 UNK         0.0000 
     32 C32       -16.8754   13.6788   15.5996 C.2       1 UNK         0.0000 
     33 C33       -19.0408   12.6020   16.1838 C.3       1 UNK         0.0000 
     34 C34       -20.8746    9.2713   15.4109 C.3       1 UNK         0.0000 
     35 H35       -18.5242   12.0750   16.9912 H         1 UNK         0.0000 
     36 H36       -21.8857    9.6790   15.3224 H         1 UNK         0.0000 
     37 H37       -19.2369    7.5974   10.5552 H         1 UNK         0.0000 
     38 H38       -21.6471    7.7116   11.0841 H         1 UNK         0.0000 
     39 H39       -17.5549    8.2423   12.2455 H         1 UNK         0.0000 
     40 H40       -22.3852    8.4741   13.3064 H         1 UNK         0.0000 
     41 H41       -18.2742    9.0010   14.4707 H         1 UNK         0.0000 
     42 H42       -19.2311   13.1563   19.3568 H         1 UNK         0.0000 
     43 H43       -22.5519   13.4817   16.6443 H         1 UNK         0.0000 
     44 H44       -21.4400    7.4550   19.5199 H         1 UNK         0.0000 
     45 H45       -25.5890    8.1902   18.5926 H         1 UNK         0.0000 
     46 H46       -20.7128   12.1465   21.0462 H         1 UNK         0.0000 
     47 H47       -24.0261   12.4690   18.3307 H         1 UNK         0.0000 
     48 H48       -21.3106    9.6227   20.6294 H         1 UNK         0.0000 
     49 H49       -25.4394   10.3694   19.7092 H         1 UNK         0.0000 
     50 H50       -20.3922   14.3340   15.9921 H         1 UNK         0.0000 
     51 H51       -19.1644   14.5535   17.1936 H         1 UNK         0.0000 
     52 H52       -21.4853    5.8572   17.7988 H         1 UNK         0.0000 
     53 H53       -22.5395    5.3063   16.5349 H         1 UNK         0.0000 
     54 H54       -22.7590    7.5734   15.6714 H         1 UNK         0.0000 
     55 H55       -19.4788   10.1303   16.7504 H         1 UNK         0.0000 
     56 H56       -18.2833   13.0067   14.2181 H         1 UNK         0.0000 
     57 O57       -16.1745   14.0356   14.4883 O.3       1 UNK         0.0000 
     58 C58       -14.9041   14.7155   14.4830 C.3       1 UNK         0.0000 
     59 C59       -15.0110   16.1165   15.1363 C.3       1 UNK         0.0000 
     60 H60       -15.8180   16.6999   14.6910 H         1 UNK         0.0000 
     61 H61       -15.2078   16.0601   16.2068 H         1 UNK         0.0000 
     62 H62       -14.0887   16.6849   15.0100 H         1 UNK         0.0000 
     63 C63       -14.5613   14.8761   12.9871 C.3       1 UNK         0.0000 
     64 H64       -13.6068   15.3850   12.8456 H         1 UNK         0.0000 
     65 H65       -14.4940   13.9092   12.4859 H         1 UNK         0.0000 
     66 H66       -15.3222   15.4559   12.4622 H         1 UNK         0.0000 
     67 C67       -13.8061   13.8656   15.1708 C.3       1 UNK         0.0000 
     68 H68       -13.9759   13.7585   16.2420 H         1 UNK         0.0000 
     69 H69       -13.7625   12.8603   14.7498 H         1 UNK         0.0000 
     70 H70       -12.8201   14.3150   15.0465 H         1 UNK         0.0000 
@<TRIPOS>BOND
     1    1   31 am   BACKBONE|DICT|INTERRES
     2    1   23 1    
     3    1   54 1    
     4    2   29 2    
     5    3    6 ar   
     6    3    9 ar   
     7    3   37 1    
     8    4   55 1    
     9    4   30 am   BACKBONE|DICT|INTERRES
    10    4   34 1    
    11    5   30 2    
    12    6   11 ar   
    13    6   38 1    
    14    7   32 am   BACKBONE|DICT|INTERRES
    15    7   33 1    
    16    7   56 1    
    17    8   31 2    
    18    9   13 ar   
    19    9   39 1    
    20   10   32 2    
    21   11   40 1    
    22   11   26 ar   
    23   12   27 1    
    24   12   28 1    
    25   13   26 ar   
    26   13   41 1    
    27   14   42 1    
    28   14   18 ar   
    29   14   24 ar   
    30   15   24 ar   
    31   15   19 ar   
    32   15   43 1    
    33   16   20 ar   
    34   16   25 ar   
    35   16   44 1    
    36   17   21 ar   
    37   17   25 ar   
    38   17   45 1    
    39   18   46 1    
    40   18   27 ar   
    41   19   27 ar   
    42   19   47 1    
    43   20   28 ar   
    44   20   48 1    
    45   21   49 1    
    46   21   28 ar   
    47   22   51 1    
    48   22   24 1    
    49   22   33 1    
    50   22   50 1    
    51   23   52 1    
    52   23   29 1    
    53   23   53 1    
    54   25   29 1    
    55   26   34 1    
    56   30   33 1    
    57   31   34 1    
    58   32   57 1    
    59   33   35 1    
    60   34   36 1    
    61   57   58 1    
    62   58   59 1    
    63   58   67 1    
    64   58   63 1    
    65   59   61 1    
    66   59   60 1    
    67   59   62 1    
    68   63   64 1    
    69   63   65 1    
    70   63   66 1    
    71   67   68 1    
    72   67   69 1    
    73   67   70 1    
@<TRIPOS>SUBSTRUCTURE
     1 UNK         1 GROUP             0       ****    0 ROOT    
@<TRIPOS>MOLECULE
Cpd2-5
70   73    1
SMALL
USER_CHARGES


@<TRIPOS>ATOM
      1 N1        -22.0580    7.3424   16.3472 N.am      1 UNK         0.0000 
      2 O2        -24.5803    5.7876   17.9476 O.2       1 UNK         0.0000 
      3 C3        -19.4995    7.9296   11.5364 C.ar      1 UNK         0.0000 
      4 N4        -20.0341   10.3602   15.9418 N.am      1 UNK         0.0000 
      5 O5        -20.6310   12.0077   14.4871 O.2       1 UNK         0.0000 
      6 C6        -18.5614    8.2904   12.4998 C.ar      1 UNK         0.0000 
      7 N7        -18.0151   13.0424   15.2481 N.am      1 UNK         0.0000 
      8 O8        -19.9733    7.8311   17.1248 O.2       1 UNK         0.0000 
      9 C9        -20.8621    7.9953   11.8148 C.ar      1 UNK         0.0000 
     10 O10       -16.0128   14.1254   14.8243 O.2       1 UNK         0.0000 
     11 C11       -18.9899    8.7212   13.7523 C.ar      1 UNK         0.0000 
     12 O12       -23.2204   11.4549   20.6444 O.3       1 UNK         0.0000 
     13 C13       -21.2903    8.4263   13.0673 C.ar      1 UNK         0.0000 
     14 C14       -20.2948   13.0542   19.1438 C.ar      1 UNK         0.0000 
     15 C15       -22.1660   13.2074   17.6126 C.ar      1 UNK         0.0000 
     16 C16       -22.3203    8.0785   19.5535 C.ar      1 UNK         0.0000 
     17 C17       -24.6563    8.4835   19.0672 C.ar      1 UNK         0.0000 
     18 C18       -21.1266   12.4889   20.1057 C.ar      1 UNK         0.0000 
     19 C19       -22.9961   12.6403   18.5724 C.ar      1 UNK         0.0000 
     20 C20       -22.2429    9.3050   20.2001 C.ar      1 UNK         0.0000 
     21 C21       -24.5764    9.7161   19.7110 C.ar      1 UNK         0.0000 
     22 C22       -19.8600   13.8041   16.7688 C.3       1 UNK         0.0000 
     23 C23       -22.3457    6.1645   17.1787 C.3       1 UNK         0.0000 
     24 C24       -20.8055   13.3682   17.8817 C.ar      1 UNK         0.0000 
     25 C25       -23.5086    7.6938   18.9235 C.ar      1 UNK         0.0000 
     26 C26       -20.3601    8.7929   14.0474 C.ar      1 UNK         0.0000 
     27 C27       -22.4640   12.2326   19.7989 C.ar      1 UNK         0.0000 
     28 C28       -23.3550   10.1510   20.2259 C.ar      1 UNK         0.0000 
     29 C29       -23.5509    6.4462   18.1029 C.2       1 UNK         0.0000 
     30 C30       -19.9735   11.6154   15.4537 C.2       1 UNK         0.0000 
     31 C31       -20.9317    8.0817   16.3904 C.2       1 UNK         0.0000 
     32 C32       -16.8355   13.6879   15.6279 C.2       1 UNK         0.0000 
     33 C33       -19.0422   12.5968   16.2049 C.3       1 UNK         0.0000 
     34 C34       -20.8648    9.2676   15.4001 C.3       1 UNK         0.0000 
     35 H35       -18.5549   12.0648   17.0265 H         1 UNK         0.0000 
     36 H36       -21.8749    9.6748   15.2990 H         1 UNK         0.0000 
     37 H37       -19.1672    7.5953   10.5647 H         1 UNK         0.0000 
     38 H38       -17.5061    8.2358   12.2771 H         1 UNK         0.0000 
     39 H39       -21.5838    7.7138   11.0622 H         1 UNK         0.0000 
     40 H40       -18.2528    8.9943   14.4934 H         1 UNK         0.0000 
     41 H41       -22.3493    8.4753   13.2756 H         1 UNK         0.0000 
     42 H42       -19.2436   13.1859   19.3564 H         1 UNK         0.0000 
     43 H43       -22.5669   13.4551   16.6405 H         1 UNK         0.0000 
     44 H44       -21.4332    7.4642   19.4997 H         1 UNK         0.0000 
     45 H45       -25.5944    8.1879   18.6188 H         1 UNK         0.0000 
     46 H46       -20.7159   12.1753   21.0542 H         1 UNK         0.0000 
     47 H47       -24.0317   12.4443   18.3357 H         1 UNK         0.0000 
     48 H48       -21.2998    9.6284   20.6157 H         1 UNK         0.0000 
     49 H49       -25.4410   10.3630   19.7425 H         1 UNK         0.0000 
     50 H50       -20.4137   14.3096   15.9746 H         1 UNK         0.0000 
     51 H51       -19.1987   14.5689   17.1784 H         1 UNK         0.0000 
     52 H52       -21.4935    5.8582   17.7879 H         1 UNK         0.0000 
     53 H53       -22.5532    5.3166   16.5242 H         1 UNK         0.0000 
     54 H54       -22.7693    7.5920   15.6751 H         1 UNK         0.0000 
     55 H55       -19.4978   10.1293   16.7659 H         1 UNK         0.0000 
     56 H56       -18.2345   12.9727   14.2647 H         1 UNK         0.0000 
     57 O57       -16.7067   13.7654   16.9910 O.3       1 UNK         0.0000 
     58 C58       -15.6274   14.3992   17.7007 C.3       1 UNK         0.0000 
     59 C59       -14.2763   13.6992   17.4121 C.3       1 UNK         0.0000 
     60 H60       -14.3418   12.6249   17.5892 H         1 UNK         0.0000 
     61 H61       -13.9515   13.8362   16.3808 H         1 UNK         0.0000 
     62 H62       -13.4834   14.0882   18.0522 H         1 UNK         0.0000 
     63 C63       -15.9951   14.2141   19.1877 C.3       1 UNK         0.0000 
     64 H64       -15.2459   14.6570   19.8455 H         1 UNK         0.0000 
     65 H65       -16.0792   13.1585   19.4510 H         1 UNK         0.0000 
     66 H66       -16.9539   14.6785   19.4235 H         1 UNK         0.0000 
     67 C67       -15.5515   15.9120   17.3764 C.3       1 UNK         0.0000 
     68 H68       -15.2541   16.0994   16.3447 H         1 UNK         0.0000 
     69 H69       -16.5170   16.3972   17.5262 H         1 UNK         0.0000 
     70 H70       -14.8278   16.4192   18.0157 H         1 UNK         0.0000 
@<TRIPOS>BOND
     1    1   31 am   BACKBONE|DICT|INTERRES
     2    1   23 1    
     3    1   54 1    
     4    2   29 2    
     5    3    6 ar   
     6    3    9 ar   
     7    3   37 1    
     8    4   55 1    
     9    4   30 am   BACKBONE|DICT|INTERRES
    10    4   34 1    
    11    5   30 2    
    12    6   38 1    
    13    6   11 ar   
    14    7   32 am   BACKBONE|DICT|INTERRES
    15    7   33 1    
    16    7   56 1    
    17    8   31 2    
    18    9   13 ar   
    19    9   39 1    
    20   10   32 2    
    21   11   40 1    
    22   11   26 ar   
    23   12   28 1    
    24   12   27 1    
    25   13   26 ar   
    26   13   41 1    
    27   14   42 1    
    28   14   18 ar   
    29   14   24 ar   
    30   15   24 ar   
    31   15   19 ar   
    32   15   43 1    
    33   16   20 ar   
    34   16   44 1    
    35   16   25 ar   
    36   17   21 ar   
    37   17   25 ar   
    38   17   45 1    
    39   18   46 1    
    40   18   27 ar   
    41   19   27 ar   
    42   19   47 1    
    43   20   48 1    
    44   20   28 ar   
    45   21   28 ar   
    46   21   49 1    
    47   22   33 1    
    48   22   51 1    
    49   22   24 1    
    50   22   50 1    
    51   23   29 1    
    52   23   52 1    
    53   23   53 1    
    54   25   29 1    
    55   26   34 1    
    56   30   33 1    
    57   31   34 1    
    58   32   57 1    
    59   33   35 1    
    60   34   36 1    
    61   57   58 1    
    62   58   59 1    
    63   58   63 1    
    64   58   67 1    
    65   59   60 1    
    66   59   62 1    
    67   59   61 1    
    68   63   64 1    
    69   63   65 1    
    70   63   66 1    
    71   67   70 1    
    72   67   68 1    
    73   67   69 1    
@<TRIPOS>SUBSTRUCTURE
     1 UNK         1 GROUP             0       ****    0 ROOT    
@<TRIPOS>MOLECULE
Cpd2-6
70   73    1
SMALL
USER_CHARGES


@<TRIPOS>ATOM
      1 N1        -21.7506    7.1217   16.2702 N.am      1 UNK         0.0000 
      2 O2        -24.4658    5.9800   17.6619 O.2       1 UNK         0.0000 
      3 C3        -16.8742    7.9385   13.1772 C.ar      1 UNK         0.0000 
      4 N4        -20.8475   10.4088   15.0992 N.am      1 UNK         0.0000 
      5 O5        -18.9229   11.1082   16.0930 O.2       1 UNK         0.0000 
      6 C6        -17.7607    8.8125   12.5564 C.ar      1 UNK         0.0000 
      7 N7        -21.7770   13.0624   14.8451 N.am      1 UNK         0.0000 
      8 O8        -20.5397    8.6637   17.4412 O.2       1 UNK         0.0000 
      9 C9        -17.1889    7.3705   14.4077 C.ar      1 UNK         0.0000 
     10 O10       -21.2177   12.8632   12.5793 O.2       1 UNK         0.0000 
     11 C11       -18.9691    9.1214   13.1737 C.ar      1 UNK         0.0000 
     12 O12       -23.1118   11.4309   20.7775 O.3       1 UNK         0.0000 
     13 C13       -18.3979    7.6808   15.0243 C.ar      1 UNK         0.0000 
     14 C14       -20.2427   12.6192   18.8539 C.ar      1 UNK         0.0000 
     15 C15       -22.2708   13.5895   17.9552 C.ar      1 UNK         0.0000 
     16 C16       -24.4640    8.7226   18.7245 C.ar      1 UNK         0.0000 
     17 C17       -22.4344    7.9762   19.8137 C.ar      1 UNK         0.0000 
     18 C18       -20.9724   12.0609   19.8963 C.ar      1 UNK         0.0000 
     19 C19       -23.0036   13.0214   18.9924 C.ar      1 UNK         0.0000 
     20 C20       -24.3994    9.9207   19.4300 C.ar      1 UNK         0.0000 
     21 C21       -22.3786    9.1668   20.5280 C.ar      1 UNK         0.0000 
     22 C22       -20.1299   13.7694   16.6082 C.3       1 UNK         0.0000 
     23 C23       -22.1013    6.1729   17.3355 C.3       1 UNK         0.0000 
     24 C24       -20.9002   13.3360   17.8521 C.ar      1 UNK         0.0000 
     25 C25       -23.4389    7.7799   18.8595 C.ar      1 UNK         0.0000 
     26 C26       -19.3051    8.5687   14.4191 C.ar      1 UNK         0.0000 
     27 C27       -22.3615   12.2085   19.9278 C.ar      1 UNK         0.0000 
     28 C28       -23.3252   10.1637   20.2887 C.ar      1 UNK         0.0000 
     29 C29       -23.4346    6.5556   18.0120 C.2       1 UNK         0.0000 
     30 C30       -20.0050   11.3616   15.5622 C.2       1 UNK         0.0000 
     31 C31       -21.0090    8.2431   16.3829 C.2       1 UNK         0.0000 
     32 C32       -22.0418   13.0396   13.4793 C.2       1 UNK         0.0000 
     33 C33       -20.4158   12.8542   15.3794 C.3       1 UNK         0.0000 
     34 C34       -20.6528    8.9441   15.0433 C.3       1 UNK         0.0000 
     35 H35       -19.7209   13.2311   14.6248 H         1 UNK         0.0000 
     36 H36       -21.4036    8.6216   14.3187 H         1 UNK         0.0000 
     37 H37       -15.9360    7.6974   12.6996 H         1 UNK         0.0000 
     38 H38       -17.5132    9.2483   11.5997 H         1 UNK         0.0000 
     39 H39       -16.4973    6.6907   14.8832 H         1 UNK         0.0000 
     40 H40       -19.6498    9.7991   12.6785 H         1 UNK         0.0000 
     41 H41       -18.6088    7.2222   15.9784 H         1 UNK         0.0000 
     42 H42       -19.1806   12.4318   18.7894 H         1 UNK         0.0000 
     43 H43       -22.7823   14.1615   17.1950 H         1 UNK         0.0000 
     44 H44       -25.2703    8.5707   18.0208 H         1 UNK         0.0000 
     45 H45       -21.6605    7.2398   19.9743 H         1 UNK         0.0000 
     46 H46       -20.4719   11.4390   20.6237 H         1 UNK         0.0000 
     47 H47       -24.0767   13.1410   19.0199 H         1 UNK         0.0000 
     48 H48       -25.1386   10.6880   19.2525 H         1 UNK         0.0000 
     49 H49       -21.5552    9.3463   21.2035 H         1 UNK         0.0000 
     50 H50       -20.3772   14.8076   16.3796 H         1 UNK         0.0000 
     51 H51       -19.0603   13.7736   16.8281 H         1 UNK         0.0000 
     52 H52       -21.3021    6.0806   18.0720 H         1 UNK         0.0000 
     53 H53       -22.1819    5.1763   16.8993 H         1 UNK         0.0000 
     54 H54       -22.0537    6.8561   15.3441 H         1 UNK         0.0000 
     55 H55       -21.7500   10.7149   14.7647 H         1 UNK         0.0000 
     56 H56       -22.5409   13.1556   15.4989 H         1 UNK         0.0000 
     57 O57       -23.3776   13.2244   13.2956 O.3       1 UNK         0.0000 
     58 C58       -24.0558   13.2141   12.0245 C.3       1 UNK         0.0000 
     59 C59       -23.9151   11.8397   11.3226 C.3       1 UNK         0.0000 
     60 H60       -22.8908   11.6377   11.0095 H         1 UNK         0.0000 
     61 H61       -24.2155   11.0255   11.9835 H         1 UNK         0.0000 
     62 H62       -24.5396   11.7837   10.4300 H         1 UNK         0.0000 
     63 C63       -23.5556   14.3588   11.1078 C.3       1 UNK         0.0000 
     64 H64       -24.1618   14.4374   10.2043 H         1 UNK         0.0000 
     65 H65       -23.6019   15.3222   11.6172 H         1 UNK         0.0000 
     66 H66       -22.5238   14.2129   10.7887 H         1 UNK         0.0000 
     67 C67       -25.5381   13.4552   12.3787 C.3       1 UNK         0.0000 
     68 H68       -25.9232   12.6776   13.0401 H         1 UNK         0.0000 
     69 H69       -25.6772   14.4084   12.8914 H         1 UNK         0.0000 
     70 H70       -26.1676   13.4680   11.4878 H         1 UNK         0.0000 
@<TRIPOS>BOND
     1    1   31 am   BACKBONE|DICT|INTERRES
     2    1   23 1    
     3    1   54 1    
     4    2   29 2    
     5    3    9 ar   
     6    3    6 ar   
     7    3   37 1    
     8    4   30 am   BACKBONE|DICT|INTERRES
     9    4   34 1    
    10    4   55 1    
    11    5   30 2    
    12    6   11 ar   
    13    6   38 1    
    14    7   33 1    
    15    7   56 1    
    16    7   32 am   BACKBONE|DICT|INTERRES
    17    8   31 2    
    18    9   39 1    
    19    9   13 ar   
    20   10   32 2    
    21   11   26 ar   
    22   11   40 1    
    23   12   27 1    
    24   12   28 1    
    25   13   41 1    
    26   13   26 ar   
    27   14   18 ar   
    28   14   24 ar   
    29   14   42 1    
    30   15   19 ar   
    31   15   24 ar   
    32   15   43 1    
    33   16   20 ar   
    34   16   25 ar   
    35   16   44 1    
    36   17   21 ar   
    37   17   25 ar   
    38   17   45 1    
    39   18   27 ar   
    40   18   46 1    
    41   19   47 1    
    42   19   27 ar   
    43   20   48 1    
    44   20   28 ar   
    45   21   28 ar   
    46   21   49 1    
    47   22   51 1    
    48   22   50 1    
    49   22   24 1    
    50   22   33 1    
    51   23   52 1    
    52   23   29 1    
    53   23   53 1    
    54   25   29 1    
    55   26   34 1    
    56   30   33 1    
    57   31   34 1    
    58   32   57 1    
    59   33   35 1    
    60   34   36 1    
    61   57   58 1    
    62   58   67 1    
    63   58   59 1    
    64   58   63 1    
    65   59   61 1    
    66   59   60 1    
    67   59   62 1    
    68   63   65 1    
    69   63   64 1    
    70   63   66 1    
    71   67   68 1    
    72   67   69 1    
    73   67   70 1    
@<TRIPOS>SUBSTRUCTURE
     1 UNK         1 GROUP             0       ****    0 ROOT    
@<TRIPOS>MOLECULE
Cpd2-7
70   73    1
SMALL
USER_CHARGES


@<TRIPOS>ATOM
      1 N1        -22.7994    7.7620   16.0868 N.am      1 UNK         0.0000 
      2 O2        -22.5973    5.4491   18.7127 O.2       1 UNK         0.0000 
      3 C3        -21.7589    9.5759   11.1233 C.ar      1 UNK         0.0000 
      4 N4        -19.9866   10.1164   15.8463 N.am      1 UNK         0.0000 
      5 O5        -18.3313   11.5183   16.3376 O.2       1 UNK         0.0000 
      6 C6        -22.8676    9.7232   11.9518 C.ar      1 UNK         0.0000 
      7 N7        -21.5396   12.4513   14.8597 N.am      1 UNK         0.0000 
      8 O8        -20.5585    7.4543   16.3349 O.2       1 UNK         0.0000 
      9 C9        -20.4871    9.4105   11.6651 C.ar      1 UNK         0.0000 
     10 O10       -21.6818   14.4473   13.6455 O.2       1 UNK         0.0000 
     11 C11       -22.7019    9.7069   13.3335 C.ar      1 UNK         0.0000 
     12 O12       -23.2966   11.5184   20.6560 O.3       1 UNK         0.0000 
     13 C13       -20.3217    9.3960   13.0473 C.ar      1 UNK         0.0000 
     14 C14       -20.3769   12.7474   18.8343 C.ar      1 UNK         0.0000 
     15 C15       -22.3899   13.5423   17.7503 C.ar      1 UNK         0.0000 
     16 C16       -24.2852    8.6457   18.6260 C.ar      1 UNK         0.0000 
     17 C17       -22.4745    8.0017   20.0968 C.ar      1 UNK         0.0000 
     18 C18       -21.1428   12.2060   19.8604 C.ar      1 UNK         0.0000 
     19 C19       -23.1574   12.9993   18.7762 C.ar      1 UNK         0.0000 
     20 C20       -24.3444    9.8898   19.2430 C.ar      1 UNK         0.0000 
     21 C21       -22.5336    9.2481   20.7136 C.ar      1 UNK         0.0000 
     22 C22       -20.1777   13.7612   16.5243 C.3       1 UNK         0.0000 
     23 C23       -23.2969    6.5115   16.6844 C.3       1 UNK         0.0000 
     24 C24       -21.0038   13.3627   17.7480 C.ar      1 UNK         0.0000 
     25 C25       -23.2992    7.7239   18.9997 C.ar      1 UNK         0.0000 
     26 C26       -21.4291    9.5466   13.8964 C.ar      1 UNK         0.0000 
     27 C27       -22.5363   12.2795   19.7990 C.ar      1 UNK         0.0000 
     28 C28       -23.4256   10.2130   20.2433 C.ar      1 UNK         0.0000 
     29 C29       -23.1022    6.4599   18.2223 C.2       1 UNK         0.0000 
     30 C30       -19.4675   11.3694   15.8886 C.2       1 UNK         0.0000 
     31 C31       -21.5134    8.1574   15.9963 C.2       1 UNK         0.0000 
     32 C32       -22.1659   13.3880   14.0489 C.2       1 UNK         0.0000 
     33 C33       -20.1918   12.6683   15.3966 C.3       1 UNK         0.0000 
     34 C34       -21.2895    9.5741   15.4111 C.3       1 UNK         0.0000 
     35 H35       -19.5757   13.0269   14.5687 H         1 UNK         0.0000 
     36 H36       -22.0559   10.2058   15.8648 H         1 UNK         0.0000 
     37 H37       -21.8864    9.5900   10.0510 H         1 UNK         0.0000 
     38 H38       -23.8509    9.8534   11.5248 H         1 UNK         0.0000 
     39 H39       -19.6318    9.2954   11.0158 H         1 UNK         0.0000 
     40 H40       -23.5664    9.8321   13.9694 H         1 UNK         0.0000 
     41 H41       -19.3286    9.2667   13.4518 H         1 UNK         0.0000 
     42 H42       -19.3042   12.6198   18.8484 H         1 UNK         0.0000 
     43 H43       -22.8805   14.0352   16.9236 H         1 UNK         0.0000 
     44 H44       -24.9635    8.4382   17.8108 H         1 UNK         0.0000 
     45 H45       -21.7273    7.2931   20.4256 H         1 UNK         0.0000 
     46 H46       -20.6601   11.6554   20.6545 H         1 UNK         0.0000 
     47 H47       -24.2347   13.0627   18.7311 H         1 UNK         0.0000 
     48 H48       -25.0461   10.6299   18.8872 H         1 UNK         0.0000 
     49 H49       -21.8294    9.4931   21.4951 H         1 UNK         0.0000 
     50 H50       -20.5566   14.7099   16.1413 H         1 UNK         0.0000 
     51 H51       -19.1547   13.9838   16.8335 H         1 UNK         0.0000 
     52 H52       -22.8075    5.6624   16.2030 H         1 UNK         0.0000 
     53 H53       -24.3603    6.4260   16.4606 H         1 UNK         0.0000 
     54 H54       -23.5106    8.3886   15.7381 H         1 UNK         0.0000 
     55 H55       -19.3867    9.3944   16.2192 H         1 UNK         0.0000 
     56 H56       -22.0657   11.6573   15.1955 H         1 UNK         0.0000 
     57 O57       -23.4159   12.9335   13.7643 O.3       1 UNK         0.0000 
     58 C58       -24.3719   13.5875   12.9100 C.3       1 UNK         0.0000 
     59 C59       -24.7696   14.9775   13.4668 C.3       1 UNK         0.0000 
     60 H60       -25.0859   14.9101   14.5086 H         1 UNK         0.0000 
     61 H61       -23.9468   15.6908   13.4260 H         1 UNK         0.0000 
     62 H62       -25.5962   15.4098   12.9014 H         1 UNK         0.0000 
     63 C63       -25.6019   12.6565   12.9335 C.3       1 UNK         0.0000 
     64 H64       -26.4115   13.0440   12.3135 H         1 UNK         0.0000 
     65 H65       -25.3567   11.6591   12.5654 H         1 UNK         0.0000 
     66 H66       -25.9929   12.5357   13.9450 H         1 UNK         0.0000 
     67 C67       -23.8410   13.6990   11.4589 C.3       1 UNK         0.0000 
     68 H68       -22.9912   14.3772   11.3811 H         1 UNK         0.0000 
     69 H69       -23.5135   12.7290   11.0821 H         1 UNK         0.0000 
     70 H70       -24.6110   14.0702   10.7816 H         1 UNK         0.0000 
@<TRIPOS>BOND
     1    1   23 1    
     2    1   31 am   BACKBONE|DICT|INTERRES
     3    1   54 1    
     4    2   29 2    
     5    3    9 ar   
     6    3    6 ar   
     7    3   37 1    
     8    4   55 1    
     9    4   30 am   BACKBONE|DICT|INTERRES
    10    4   34 1    
    11    5   30 2    
    12    6   11 ar   
    13    6   38 1    
    14    7   56 1    
    15    7   33 1    
    16    7   32 am   BACKBONE|DICT|INTERRES
    17    8   31 2    
    18    9   13 ar   
    19    9   39 1    
    20   10   32 2    
    21   11   26 ar   
    22   11   40 1    
    23   12   27 1    
    24   12   28 1    
    25   13   41 1    
    26   13   26 ar   
    27   14   42 1    
    28   14   18 ar   
    29   14   24 ar   
    30   15   24 ar   
    31   15   19 ar   
    32   15   43 1    
    33   16   25 ar   
    34   16   20 ar   
    35   16   44 1    
    36   17   45 1    
    37   17   21 ar   
    38   17   25 ar   
    39   18   46 1    
    40   18   27 ar   
    41   19   27 ar   
    42   19   47 1    
    43   20   28 ar   
    44   20   48 1    
    45   21   49 1    
    46   21   28 ar   
    47   22   51 1    
    48   22   24 1    
    49   22   33 1    
    50   22   50 1    
    51   23   29 1    
    52   23   52 1    
    53   23   53 1    
    54   25   29 1    
    55   26   34 1    
    56   30   33 1    
    57   31   34 1    
    58   32   57 1    
    59   33   35 1    
    60   34   36 1    
    61   57   58 1    
    62   58   59 1    
    63   58   63 1    
    64   58   67 1    
    65   59   61 1    
    66   59   60 1    
    67   59   62 1    
    68   63   66 1    
    69   63   64 1    
    70   63   65 1    
    71   67   68 1    
    72   67   69 1    
    73   67   70 1    
@<TRIPOS>SUBSTRUCTURE
     1 UNK         1 GROUP             0       ****    0 ROOT    
@<TRIPOS>MOLECULE
Cpd2-8-MRC
70   73    1
SMALL
USER_CHARGES


@<TRIPOS>ATOM
      1 N1        -22.4775    7.5212   15.8873 N.am      1 UNK         0.0000 
      2 O2        -22.4993    5.5225   18.7747 O.2       1 UNK         0.0000 
      3 C3        -17.0663    7.7317   13.0924 C.ar      1 UNK         0.0000 
      4 N4        -20.8634   10.4738   15.0626 N.am      1 UNK         0.0000 
      5 O5        -18.9830   10.8665   16.2826 O.2       1 UNK         0.0000 
      6 C6        -17.7152    8.8703   12.6268 C.ar      1 UNK         0.0000 
      7 N7        -21.4365   13.2317   14.8950 N.am      1 UNK         0.0000 
      8 O8        -20.6875    8.2211   17.1414 O.2       1 UNK         0.0000 
      9 C9        -17.6135    6.9835   14.1296 C.ar      1 UNK         0.0000 
     10 O10       -20.7186   13.0474   12.6730 O.2       1 UNK         0.0000 
     11 C11       -18.9165    9.2647   13.2081 C.ar      1 UNK         0.0000 
     12 O12       -23.3987   11.5560   20.6272 O.3       1 UNK         0.0000 
     13 C13       -18.8152    7.3800   14.7100 C.ar      1 UNK         0.0000 
     14 C14       -20.2688   12.4982   19.0010 C.ar      1 UNK         0.0000 
     15 C15       -22.1031   13.7037   17.9782 C.ar      1 UNK         0.0000 
     16 C16       -24.0844    8.7741   18.3565 C.ar      1 UNK         0.0000 
     17 C17       -22.7114    8.0016   20.1926 C.ar      1 UNK         0.0000 
     18 C18       -21.1361   11.9987   19.9635 C.ar      1 UNK         0.0000 
     19 C19       -22.9750   13.1940   18.9352 C.ar      1 UNK         0.0000 
     20 C20       -24.2079   10.0131   18.9743 C.ar      1 UNK         0.0000 
     21 C21       -22.8378    9.2402   20.8122 C.ar      1 UNK         0.0000 
     22 C22       -19.8556   13.6624   16.8022 C.3       1 UNK         0.0000 
     23 C23       -23.1292    6.4475   16.6684 C.3       1 UNK         0.0000 
     24 C24       -20.7643   13.3009   17.9724 C.ar      1 UNK         0.0000 
     25 C25       -23.2794    7.7821   18.9300 C.ar      1 UNK         0.0000 
     26 C26       -19.4820    8.5371   14.2681 C.ar      1 UNK         0.0000 
     27 C27       -22.5016   12.2896   19.8863 C.ar      1 UNK         0.0000 
     28 C28       -23.5320   10.2649   20.1711 C.ar      1 UNK         0.0000 
     29 C29       -22.9943    6.5003   18.2111 C.2       1 UNK         0.0000 
     30 C30       -19.9654   11.2842   15.6688 C.2       1 UNK         0.0000 
     31 C31       -21.3443    8.2280   16.0994 C.2       1 UNK         0.0000 
     32 C32       -21.5861   13.2966   13.5131 C.2       1 UNK         0.0000 
     33 C33       -20.1635   12.8248   15.5248 C.3       1 UNK         0.0000 
     34 C34       -20.8149    9.0101   14.8647 C.3       1 UNK         0.0000 
     35 H35       -19.3664   13.1274   14.8413 H         1 UNK         0.0000 
     36 H36       -21.5370    8.8563   14.0596 H         1 UNK         0.0000 
     37 H37       -16.1344    7.4232   12.6420 H         1 UNK         0.0000 
     38 H38       -17.2905    9.4441   11.8163 H         1 UNK         0.0000 
     39 H39       -17.1090    6.0958   14.4817 H         1 UNK         0.0000 
     40 H40       -19.4100   10.1471   12.8267 H         1 UNK         0.0000 
     41 H41       -19.2124    6.7682   15.5053 H         1 UNK         0.0000 
     42 H42       -19.2315   12.1962   19.0133 H         1 UNK         0.0000 
     43 H43       -22.4872   14.3447   17.1983 H         1 UNK         0.0000 
     44 H44       -24.5682    8.6249   17.4024 H         1 UNK         0.0000 
     45 H45       -22.1077    7.2447   20.6731 H         1 UNK         0.0000 
     46 H46       -20.7659   11.3051   20.7042 H         1 UNK         0.0000 
     47 H47       -24.0288   13.4246   18.8792 H         1 UNK         0.0000 
     48 H48       -24.7542   10.8034   18.4805 H         1 UNK         0.0000 
     49 H49       -22.3186    9.4314   21.7399 H         1 UNK         0.0000 
     50 H50       -19.9498   14.7299   16.5948 H         1 UNK         0.0000 
     51 H51       -18.8134   13.5207   17.0953 H         1 UNK         0.0000 
     52 H52       -22.7594    5.4900   16.2976 H         1 UNK         0.0000 
     53 H53       -24.1936    6.4673   16.4339 H         1 UNK         0.0000 
     54 H54       -22.8814    7.6354   14.9688 H         1 UNK         0.0000 
     55 H55       -21.6858   10.9103   14.6716 H         1 UNK         0.0000 
     56 H56       -22.2351   13.3981   15.4903 H         1 UNK         0.0000 
     57 O57       -22.8667   13.6630   13.2344 O.3       1 UNK         0.0000 
     58 C58       -23.4306   13.7925   11.9149 C.3       1 UNK         0.0000 
     59 C59       -23.4088   12.4403   11.1581 C.3       1 UNK         0.0000 
     60 H60       -22.3962   12.1172   10.9167 H         1 UNK         0.0000 
     61 H61       -23.8661   11.6475   11.7516 H         1 UNK         0.0000 
     62 H62       -23.9576   12.5027   10.2175 H         1 UNK         0.0000 
     63 C63       -22.7119   14.8965   11.0991 C.3       1 UNK         0.0000 
     64 H64       -23.2245   15.0903   10.1560 H         1 UNK         0.0000 
     65 H65       -22.6766   15.8365   11.6511 H         1 UNK         0.0000 
     66 H66       -21.6842   14.6281   10.8549 H         1 UNK         0.0000 
     67 C67       -24.8942   14.2132   12.1631 C.3       1 UNK         0.0000 
     68 H68       -25.4308   13.4670   12.7512 H         1 UNK         0.0000 
     69 H69       -24.9525   15.1547   12.7115 H         1 UNK         0.0000 
     70 H70       -25.4389   14.3456   11.2272 H         1 UNK         0.0000 
@<TRIPOS>BOND
     1    1   23 1    
     2    1   31 am   BACKBONE|DICT|INTERRES
     3    1   54 1    
     4    2   29 2    
     5    3    6 ar   
     6    3    9 ar   
     7    3   37 1    
     8    4   30 am   BACKBONE|DICT|INTERRES
     9    4   34 1    
    10    4   55 1    
    11    5   30 2    
    12    6   11 ar   
    13    6   38 1    
    14    7   33 1    
    15    7   56 1    
    16    7   32 am   BACKBONE|DICT|INTERRES
    17    8   31 2    
    18    9   13 ar   
    19    9   39 1    
    20   10   32 2    
    21   11   40 1    
    22   11   26 ar   
    23   12   27 1    
    24   12   28 1    
    25   13   26 ar   
    26   13   41 1    
    27   14   18 ar   
    28   14   24 ar   
    29   14   42 1    
    30   15   19 ar   
    31   15   24 ar   
    32   15   43 1    
    33   16   25 ar   
    34   16   20 ar   
    35   16   44 1    
    36   17   45 1    
    37   17   21 ar   
    38   17   25 ar   
    39   18   27 ar   
    40   18   46 1    
    41   19   47 1    
    42   19   27 ar   
    43   20   28 ar   
    44   20   48 1    
    45   21   49 1    
    46   21   28 ar   
    47   22   51 1    
    48   22   50 1    
    49   22   24 1    
    50   22   33 1    
    51   23   29 1    
    52   23   52 1    
    53   23   53 1    
    54   25   29 1    
    55   26   34 1    
    56   30   33 1    
    57   31   34 1    
    58   32   57 1    
    59   33   35 1    
    60   34   36 1    
    61   57   58 1    
    62   58   67 1    
    63   58   59 1    
    64   58   63 1    
    65   59   61 1    
    66   59   60 1    
    67   59   62 1    
    68   63   65 1    
    69   63   64 1    
    70   63   66 1    
    71   67   68 1    
    72   67   69 1    
    73   67   70 1    
@<TRIPOS>SUBSTRUCTURE
     1 UNK         1 GROUP             0       ****    0 ROOT    
@<TRIPOS>MOLECULE
Cpd2-9
70   73    1
SMALL
USER_CHARGES


@<TRIPOS>ATOM
      1 N1        -21.0718    7.5675   16.9462 N.am      1 UNK         0.0000 
      2 O2        -23.8294    5.8383   17.8832 O.2       1 UNK         0.0000 
      3 C3        -19.1463    8.5312   11.1673 C.ar      1 UNK         0.0000 
      4 N4        -20.1779   10.0324   15.8570 N.am      1 UNK         0.0000 
      5 O5        -20.7317   11.9966   14.8531 O.2       1 UNK         0.0000 
      6 C6        -20.5209    8.7364   11.2527 C.ar      1 UNK         0.0000 
      7 N7        -17.6510   12.1977   16.1021 N.am      1 UNK         0.0000 
      8 O8        -22.1073    7.0266   15.0065 O.2       1 UNK         0.0000 
      9 C9        -18.3595    8.5161   12.3157 C.ar      1 UNK         0.0000 
     10 O10       -17.9610   12.2608   13.7687 O.2       1 UNK         0.0000 
     11 C11       -21.1135    8.9302   12.4975 C.ar      1 UNK         0.0000 
     12 O12       -23.5738   11.6854   20.5402 O.3       1 UNK         0.0000 
     13 C13       -18.9521    8.7101   13.5600 C.ar      1 UNK         0.0000 
     14 C14       -20.3911   13.0757   19.4346 C.ar      1 UNK         0.0000 
     15 C15       -22.0204   13.2830   17.6546 C.ar      1 UNK         0.0000 
     16 C16       -22.2525    8.3279   19.9386 C.ar      1 UNK         0.0000 
     17 C17       -24.3766    8.5665   18.8031 C.ar      1 UNK         0.0000 
     18 C18       -21.3904   12.6434   20.2998 C.ar      1 UNK         0.0000 
     19 C19       -23.0169   12.8356   18.5150 C.ar      1 UNK         0.0000 
     20 C20       -22.4301    9.5719   20.5294 C.ar      1 UNK         0.0000 
     21 C21       -24.5439    9.8237   19.3808 C.ar      1 UNK         0.0000 
     22 C22       -19.5635   13.5082   17.0882 C.3       1 UNK         0.0000 
     23 C23       -21.5002    6.3895   17.7187 C.3       1 UNK         0.0000 
     24 C24       -20.6952   13.3258   18.0943 C.ar      1 UNK         0.0000 
     25 C25       -23.1937    7.8492   19.0216 C.ar      1 UNK         0.0000 
     26 C26       -20.3361    8.9192   13.6619 C.ar      1 UNK         0.0000 
     27 C27       -22.6844   12.4436   19.8140 C.ar      1 UNK         0.0000 
     28 C28       -23.5414   10.3518   20.1960 C.ar      1 UNK         0.0000 
     29 C29       -22.9301    6.5804   18.2798 C.2       1 UNK         0.0000 
     30 C30       -20.0722   11.3659   15.6814 C.2       1 UNK         0.0000 
     31 C31       -21.4265    7.8133   15.6677 C.2       1 UNK         0.0000 
     32 C32       -17.2423   12.1982   14.7678 C.2       1 UNK         0.0000 
     33 C33       -19.0509   12.1242   16.5781 C.3       1 UNK         0.0000 
     34 C34       -21.0063    9.1533   15.0066 C.3       1 UNK         0.0000 
     35 H35       -18.9392   11.4996   17.4673 H         1 UNK         0.0000 
     36 H36       -21.9539    9.6775   14.8561 H         1 UNK         0.0000 
     37 H37       -18.6863    8.3818   10.2016 H         1 UNK         0.0000 
     38 H38       -21.1246    8.7467   10.3573 H         1 UNK         0.0000 
     39 H39       -17.2941    8.3557   12.2416 H         1 UNK         0.0000 
     40 H40       -22.1803    9.0914   12.5558 H         1 UNK         0.0000 
     41 H41       -18.3316    8.6971   14.4442 H         1 UNK         0.0000 
     42 H42       -19.3695   13.1224   19.7830 H         1 UNK         0.0000 
     43 H43       -22.2641   13.4920   16.6232 H         1 UNK         0.0000 
     44 H44       -21.3526    7.7730   20.1613 H         1 UNK         0.0000 
     45 H45       -25.1319    8.1981   18.1232 H         1 UNK         0.0000 
     46 H46       -21.1344   12.3490   21.3070 H         1 UNK         0.0000 
     47 H47       -24.0196   12.6888   18.1411 H         1 UNK         0.0000 
     48 H48       -21.6599    9.9646   21.1765 H         1 UNK         0.0000 
     49 H49       -25.4098   10.4186   19.1298 H         1 UNK         0.0000 
     50 H50       -19.8784   14.1466   16.2606 H         1 UNK         0.0000 
     51 H51       -18.7563   14.0549   17.5795 H         1 UNK         0.0000 
     52 H52       -20.8010    6.2257   18.5385 H         1 UNK         0.0000 
     53 H53       -21.4422    5.4805   17.1160 H         1 UNK         0.0000 
     54 H54       -20.5019    8.2434   17.4343 H         1 UNK         0.0000 
     55 H55       -19.6390    9.5765   16.5789 H         1 UNK         0.0000 
     56 H56       -16.9365   12.1115   16.8106 H         1 UNK         0.0000 
     57 O57       -15.8832   12.1253   14.7402 O.3       1 UNK         0.0000 
     58 C58       -15.0717   12.0783   13.5503 C.3       1 UNK         0.0000 
     59 C59       -15.2204   13.3758   12.7165 C.3       1 UNK         0.0000 
     60 H60       -16.2154   13.4780   12.2838 H         1 UNK         0.0000 
     61 H61       -15.0429   14.2613   13.3281 H         1 UNK         0.0000 
     62 H62       -14.5082   13.4008   11.8907 H         1 UNK         0.0000 
     63 C63       -15.3955   10.8286   12.6927 C.3       1 UNK         0.0000 
     64 H64       -14.6815   10.7104   11.8766 H         1 UNK         0.0000 
     65 H65       -15.3612    9.9176   13.2916 H         1 UNK         0.0000 
     66 H66       -16.3871   10.8811   12.2435 H         1 UNK         0.0000 
     67 C67       -13.6251   11.9726   14.0765 C.3       1 UNK         0.0000 
     68 H68       -13.3634   12.8275   14.7021 H         1 UNK         0.0000 
     69 H69       -13.4850   11.0771   14.6841 H         1 UNK         0.0000 
     70 H70       -12.9023   11.9310   13.2606 H         1 UNK         0.0000 
@<TRIPOS>BOND
     1    1   23 1    
     2    1   54 1    
     3    1   31 am   BACKBONE|DICT|INTERRES
     4    2   29 2    
     5    3    6 ar   
     6    3    9 ar   
     7    3   37 1    
     8    4   30 am   BACKBONE|DICT|INTERRES
     9    4   55 1    
    10    4   34 1    
    11    5   30 2    
    12    6   11 ar   
    13    6   38 1    
    14    7   56 1    
    15    7   33 1    
    16    7   32 am   BACKBONE|DICT|INTERRES
    17    8   31 2    
    18    9   13 ar   
    19    9   39 1    
    20   10   32 2    
    21   11   40 1    
    22   11   26 ar   
    23   12   27 1    
    24   12   28 1    
    25   13   26 ar   
    26   13   41 1    
    27   14   42 1    
    28   14   18 ar   
    29   14   24 ar   
    30   15   24 ar   
    31   15   19 ar   
    32   15   43 1    
    33   16   20 ar   
    34   16   25 ar   
    35   16   44 1    
    36   17   21 ar   
    37   17   25 ar   
    38   17   45 1    
    39   18   46 1    
    40   18   27 ar   
    41   19   27 ar   
    42   19   47 1    
    43   20   28 ar   
    44   20   48 1    
    45   21   49 1    
    46   21   28 ar   
    47   22   51 1    
    48   22   24 1    
    49   22   33 1    
    50   22   50 1    
    51   23   52 1    
    52   23   29 1    
    53   23   53 1    
    54   25   29 1    
    55   26   34 1    
    56   30   33 1    
    57   31   34 1    
    58   32   57 1    
    59   33   35 1    
    60   34   36 1    
    61   57   58 1    
    62   58   67 1    
    63   58   59 1    
    64   58   63 1    
    65   59   61 1    
    66   59   60 1    
    67   59   62 1    
    68   63   65 1    
    69   63   64 1    
    70   63   66 1    
    71   67   69 1    
    72   67   68 1    
    73   67   70 1    
@<TRIPOS>SUBSTRUCTURE
     1 UNK         1 GROUP             0       ****    0 ROOT    
@<TRIPOS>MOLECULE
Cpd2-10
70   73    1
SMALL
USER_CHARGES


@<TRIPOS>ATOM
      1 N1        -22.7973    7.7623   16.0857 N.am      1 UNK         0.0000 
      2 O2        -22.5971    5.4501   18.7122 O.2       1 UNK         0.0000 
      3 C3        -21.6940    9.5292   11.1134 C.ar      1 UNK         0.0000 
      4 N4        -19.9869   10.1170   15.8497 N.am      1 UNK         0.0000 
      5 O5        -18.3337   11.5212   16.3370 O.2       1 UNK         0.0000 
      6 C6        -22.8111    9.7093   11.9243 C.ar      1 UNK         0.0000 
      7 N7        -21.5470   12.4501   14.8517 N.am      1 UNK         0.0000 
      8 O8        -20.5570    7.4538   16.3396 O.2       1 UNK         0.0000 
      9 C9        -20.4331    9.3478   11.6750 C.ar      1 UNK         0.0000 
     10 O10       -23.3934   13.2005   13.6796 O.2       1 UNK         0.0000 
     11 C11       -22.6649    9.7089   13.3084 C.ar      1 UNK         0.0000 
     12 O12       -23.2964   11.5187   20.6570 O.3       1 UNK         0.0000 
     13 C13       -20.2873    9.3492   13.0594 C.ar      1 UNK         0.0000 
     14 C14       -20.3770   12.7430   18.8319 C.ar      1 UNK         0.0000 
     15 C15       -22.3898   13.5445   17.7525 C.ar      1 UNK         0.0000 
     16 C16       -24.2841    8.6474   18.6245 C.ar      1 UNK         0.0000 
     17 C17       -22.4769    8.0012   20.0985 C.ar      1 UNK         0.0000 
     18 C18       -21.1422   12.2024   19.8587 C.ar      1 UNK         0.0000 
     19 C19       -23.1568   13.0021   18.7792 C.ar      1 UNK         0.0000 
     20 C20       -24.3434    9.8913   19.2418 C.ar      1 UNK         0.0000 
     21 C21       -22.5360    9.2475   20.7157 C.ar      1 UNK         0.0000 
     22 C22       -20.1794   13.7599   16.5233 C.3       1 UNK         0.0000 
     23 C23       -23.2966    6.5127   16.6839 C.3       1 UNK         0.0000 
     24 C24       -21.0043   13.3609   17.7474 C.ar      1 UNK         0.0000 
     25 C25       -23.2996    7.7247   18.9996 C.ar      1 UNK         0.0000 
     26 C26       -21.4034    9.5315   13.8906 C.ar      1 UNK         0.0000 
     27 C27       -22.5358   12.2792   19.7999 C.ar      1 UNK         0.0000 
     28 C28       -23.4262   10.2134   20.2439 C.ar      1 UNK         0.0000 
     29 C29       -23.1021    6.4609   18.2218 C.2       1 UNK         0.0000 
     30 C30       -19.4696   11.3704   15.8881 C.2       1 UNK         0.0000 
     31 C31       -21.5107    8.1566   15.9971 C.2       1 UNK         0.0000 
     32 C32       -22.2323   13.3661   14.0514 C.2       1 UNK         0.0000 
     33 C33       -20.1950   12.6676   15.3934 C.3       1 UNK         0.0000 
     34 C34       -21.2845    9.5705   15.4063 C.3       1 UNK         0.0000 
     35 H35       -19.5729   13.0203   14.5680 H         1 UNK         0.0000 
     36 H36       -22.0572   10.2031   15.8475 H         1 UNK         0.0000 
     37 H37       -21.8066    9.5300   10.0393 H         1 UNK         0.0000 
     38 H38       -23.7861    9.8514   11.4820 H         1 UNK         0.0000 
     39 H39       -19.5713    9.2076   11.0394 H         1 UNK         0.0000 
     40 H40       -23.5355    9.8570   13.9309 H         1 UNK         0.0000 
     41 H41       -19.3028    9.2060   13.4802 H         1 UNK         0.0000 
     42 H42       -19.3046   12.6129   18.8441 H         1 UNK         0.0000 
     43 H43       -22.8802   14.0403   16.9275 H         1 UNK         0.0000 
     44 H44       -24.9611    8.4410   17.8078 H         1 UNK         0.0000 
     45 H45       -21.7310    7.2918   20.4285 H         1 UNK         0.0000 
     46 H46       -20.6596   11.6496   20.6513 H         1 UNK         0.0000 
     47 H47       -24.2340   13.0684   18.7361 H         1 UNK         0.0000 
     48 H48       -25.0438   10.6322   18.8849 H         1 UNK         0.0000 
     49 H49       -21.8332    9.4915   21.4987 H         1 UNK         0.0000 
     50 H50       -20.5553   14.7123   16.1480 H         1 UNK         0.0000 
     51 H51       -19.1557   13.9796   16.8326 H         1 UNK         0.0000 
     52 H52       -22.8086    5.6627   16.2027 H         1 UNK         0.0000 
     53 H53       -24.3600    6.4286   16.4601 H         1 UNK         0.0000 
     54 H54       -23.5073    8.3881   15.7332 H         1 UNK         0.0000 
     55 H55       -19.3870    9.3970   16.2267 H         1 UNK         0.0000 
     56 H56       -22.0455   11.6360   15.1813 H         1 UNK         0.0000 
     57 O57       -21.4594   14.4490   13.7270 O.3       1 UNK         0.0000 
     58 C58       -21.8842   15.5773   12.9409 C.3       1 UNK         0.0000 
     59 C59       -22.2586   15.1507   11.4996 C.3       1 UNK         0.0000 
     60 H60       -21.4573   14.5724   11.0376 H         1 UNK         0.0000 
     61 H61       -23.1573   14.5349   11.4702 H         1 UNK         0.0000 
     62 H62       -22.4439   16.0180   10.8645 H         1 UNK         0.0000 
     63 C63       -20.6461   16.4968   12.8977 C.3       1 UNK         0.0000 
     64 H64       -20.8388   17.4042   12.3237 H         1 UNK         0.0000 
     65 H65       -20.3393   16.8017   13.8996 H         1 UNK         0.0000 
     66 H66       -19.7913   15.9956   12.4409 H         1 UNK         0.0000 
     67 C67       -23.0556   16.3276   13.6226 C.3       1 UNK         0.0000 
     68 H68       -23.9711   15.7366   13.6401 H         1 UNK         0.0000 
     69 H69       -22.8154   16.5791   14.6565 H         1 UNK         0.0000 
     70 H70       -23.2857   17.2593   13.1041 H         1 UNK         0.0000 
@<TRIPOS>BOND
     1    1   31 am   BACKBONE|DICT|INTERRES
     2    1   23 1    
     3    1   54 1    
     4    2   29 2    
     5    3    9 ar   
     6    3    6 ar   
     7    3   37 1    
     8    4   55 1    
     9    4   30 am   BACKBONE|DICT|INTERRES
    10    4   34 1    
    11    5   30 2    
    12    6   11 ar   
    13    6   38 1    
    14    7   56 1    
    15    7   33 1    
    16    7   32 am   BACKBONE|DICT|INTERRES
    17    8   31 2    
    18    9   13 ar   
    19    9   39 1    
    20   10   32 2    
    21   11   40 1    
    22   11   26 ar   
    23   12   27 1    
    24   12   28 1    
    25   13   41 1    
    26   13   26 ar   
    27   14   42 1    
    28   14   18 ar   
    29   14   24 ar   
    30   15   24 ar   
    31   15   19 ar   
    32   15   43 1    
    33   16   25 ar   
    34   16   20 ar   
    35   16   44 1    
    36   17   45 1    
    37   17   21 ar   
    38   17   25 ar   
    39   18   46 1    
    40   18   27 ar   
    41   19   27 ar   
    42   19   47 1    
    43   20   28 ar   
    44   20   48 1    
    45   21   49 1    
    46   21   28 ar   
    47   22   51 1    
    48   22   24 1    
    49   22   33 1    
    50   22   50 1    
    51   23   29 1    
    52   23   52 1    
    53   23   53 1    
    54   25   29 1    
    55   26   34 1    
    56   30   33 1    
    57   31   34 1    
    58   32   57 1    
    59   33   35 1    
    60   34   36 1    
    61   57   58 1    
    62   58   63 1    
    63   58   67 1    
    64   58   59 1    
    65   59   60 1    
    66   59   61 1    
    67   59   62 1    
    68   63   65 1    
    69   63   64 1    
    70   63   66 1    
    71   67   69 1    
    72   67   68 1    
    73   67   70 1    
@<TRIPOS>SUBSTRUCTURE
     1 UNK         1 GROUP             0       ****    0 ROOT    
