@<TRIPOS>MOLECULE
Cpd2-500
70   73    1
SMALL
USER_CHARGES


@<TRIPOS>ATOM
      1 C1         -6.4470   -1.1566   -0.2022 C.3       1 UNK         0.0000 
      2 H2         -6.3642   -0.7361   -1.2048 H         1 UNK         0.0000 
      3 H3         -7.1794   -1.9691   -0.2196 H         1 UNK         0.0000 
      4 H4         -6.8078   -0.3847    0.4844 H         1 UNK         0.0000 
      5 C5         -5.1081   -1.7045    0.2821 C.3       1 UNK         0.0000 
      6 C6         -5.2480   -2.3074    1.6751 C.3       1 UNK         0.0000 
      7 H7         -4.2795   -2.6658    2.0351 H         1 UNK         0.0000 
      8 H8         -5.6318   -1.5620    2.3773 H         1 UNK         0.0000 
      9 H9         -5.9436   -3.1498    1.6442 H         1 UNK         0.0000 
     10 C10        -4.5095   -2.7219   -0.6848 C.3       1 UNK         0.0000 
     11 H11        -3.5151   -3.0252   -0.3442 H         1 UNK         0.0000 
     12 H12        -5.1504   -3.6082   -0.7094 H         1 UNK         0.0000 
     13 H13        -4.4330   -2.3155   -1.6938 H         1 UNK         0.0000 
     14 O14        -4.1666   -0.6057    0.5017 O.3       1 UNK         0.0000 
     15 C15        -3.7584    0.1637   -0.5195 C.2       1 UNK         0.0000 
     16 O16        -4.1339    0.0850   -1.6763 O.2       1 UNK         0.0000 
     17 N17        -2.8356    1.0688   -0.0830 N.am      1 UNK         0.0000 
     18 H18        -2.5706    1.0487    0.8932 H         1 UNK         0.0000 
     19 C19        -2.2426    2.0330   -0.9827 C.3       1 UNK         0.0000 
     20 C20        -1.0290    1.4872   -1.7587 C.2       1 UNK         0.0000 
     21 N21        -0.5241    0.3088   -1.3348 N.am      1 UNK         0.0000 
     22 H22        -1.0422   -0.2344   -0.6535 H         1 UNK         0.0000 
     23 O23        -0.5653    2.1267   -2.6974 O.2       1 UNK         0.0000 
     24 H24        -2.9828    2.2717   -1.7519 H         1 UNK         0.0000 
     25 C25        -1.8769    3.3368   -0.2346 C.3       1 UNK         0.0000 
     26 H26        -2.7993    3.7537    0.1803 H         1 UNK         0.0000 
     27 H27        -1.4852    4.0388   -0.9750 H         1 UNK         0.0000 
     28 C28        -0.8585    3.0795    0.8479 C.ar      1 UNK         0.0000 
     29 C29        -1.2457    2.7214    2.1447 C.ar      1 UNK         0.0000 
     30 C30        -0.3213    2.2096    3.0594 C.ar      1 UNK         0.0000 
     31 H31        -0.6299    1.8563    4.0380 H         1 UNK         0.0000 
     32 H32        -2.2915    2.7983    2.4347 H         1 UNK         0.0000 
     33 C33         0.5043    3.0573    0.5270 C.ar      1 UNK         0.0000 
     34 H34         0.8302    3.3651   -0.4642 H         1 UNK         0.0000 
     35 C35         1.4363    2.5780    1.4377 C.ar      1 UNK         0.0000 
     36 H36         2.4883    2.5120    1.1785 H         1 UNK         0.0000 
     37 C37         1.0036    2.0843    2.6651 C.ar      1 UNK         0.0000 
     38 O38         1.9089    1.3671    3.4480 O.3       1 UNK         0.0000 
     39 C39         2.2281    0.1668    2.8336 C.ar      1 UNK         0.0000 
     40 C40         3.5644   -0.1285    2.5713 C.ar      1 UNK         0.0000 
     41 C41         3.8739   -1.2727    1.8380 C.ar      1 UNK         0.0000 
     42 H42         4.9052   -1.4957    1.5816 H         1 UNK         0.0000 
     43 H43         4.3364    0.5605    2.8979 H         1 UNK         0.0000 
     44 C44         1.2107   -0.7073    2.4418 C.ar      1 UNK         0.0000 
     45 H45         0.1776   -0.4748    2.6779 H         1 UNK         0.0000 
     46 C46         1.5269   -1.8328    1.6956 C.ar      1 UNK         0.0000 
     47 H47         0.7250   -2.4788    1.3544 H         1 UNK         0.0000 
     48 C48         2.8580   -2.1070    1.3588 C.ar      1 UNK         0.0000 
     49 C49         3.2059   -3.2167    0.4237 C.2       1 UNK         0.0000 
     50 O50         4.2839   -3.7777    0.4590 O.2       1 UNK         0.0000 
     51 C51         2.1883   -3.5726   -0.6730 C.3       1 UNK         0.0000 
     52 H52         2.6440   -4.3294   -1.3135 H         1 UNK         0.0000 
     53 H53         1.2700   -3.9780   -0.2400 H         1 UNK         0.0000 
     54 N54         1.8354   -2.3923   -1.4424 N.am      1 UNK         0.0000 
     55 H55         2.5833   -1.8973   -1.9124 H         1 UNK         0.0000 
     56 C56         0.6370   -1.7767   -1.3492 C.2       1 UNK         0.0000 
     57 O57        -0.3195   -2.2481   -0.7421 O.2       1 UNK         0.0000 
     58 C58         0.5130   -0.4065   -2.0582 C.3       1 UNK         0.0000 
     59 H59         0.1691   -0.6048   -3.0839 H         1 UNK         0.0000 
     60 C60         1.8323    0.3395   -2.1300 C.ar      1 UNK         0.0000 
     61 C61         2.3783    0.6973   -3.3623 C.ar      1 UNK         0.0000 
     62 H62         1.8255    0.4883   -4.2740 H         1 UNK         0.0000 
     63 C63         3.6170    1.3369   -3.4258 C.ar      1 UNK         0.0000 
     64 H64         4.0301    1.6180   -4.3892 H         1 UNK         0.0000 
     65 C65         4.3193    1.6152   -2.2547 C.ar      1 UNK         0.0000 
     66 H66         5.2851    2.1081   -2.3025 H         1 UNK         0.0000 
     67 C67         3.7783    1.2548   -1.0188 C.ar      1 UNK         0.0000 
     68 H68         4.3276    1.4566   -0.1028 H         1 UNK         0.0000 
     69 C69         2.5400    0.6217   -0.9582 C.ar      1 UNK         0.0000 
     70 H70         2.1189    0.3324    0.0029 H         1 UNK         0.0000 
@<TRIPOS>BOND
     1    1    5 1    
     2    1    4 1    
     3    1    2 1    
     4    1    3 1    
     5    5   14 1    
     6    5    6 1    
     7    5   10 1    
     8    6    7 1    
     9    6    8 1    
    10    6    9 1    
    11   10   11 1    
    12   10   12 1    
    13   10   13 1    
    14   14   15 1    
    15   15   17 am   BACKBONE|DICT|INTERRES
    16   15   16 2    
    17   17   18 1    
    18   17   19 1    
    19   19   24 1    
    20   19   25 1    
    21   19   20 1    
    22   20   21 am   BACKBONE|DICT|INTERRES
    23   20   23 2    
    24   21   22 1    
    25   21   58 1    
    26   25   26 1    
    27   25   28 1    
    28   25   27 1    
    29   28   29 ar   
    30   28   33 ar   
    31   29   32 1    
    32   29   30 ar   
    33   30   31 1    
    34   30   37 ar   
    35   33   35 ar   
    36   33   34 1    
    37   35   37 ar   
    38   35   36 1    
    39   37   38 1    
    40   38   39 1    
    41   39   40 ar   
    42   39   44 ar   
    43   40   43 1    
    44   40   41 ar   
    45   41   42 1    
    46   41   48 ar   
    47   44   45 1    
    48   44   46 ar   
    49   46   47 1    
    50   46   48 ar   
    51   48   49 1    
    52   49   50 2    
    53   49   51 1    
    54   51   53 1    
    55   51   52 1    
    56   51   54 1    
    57   54   56 am   BACKBONE|DICT|INTERRES
    58   54   55 1    
    59   56   57 2    
    60   56   58 1    
    61   58   59 1    
    62   58   60 1    
    63   60   69 ar   
    64   60   61 ar   
    65   61   62 1    
    66   61   63 ar   
    67   63   65 ar   
    68   63   64 1    
    69   65   67 ar   
    70   65   66 1    
    71   67   69 ar   
    72   67   68 1    
    73   69   70 1    
@<TRIPOS>SUBSTRUCTURE
     1 UNK         1 GROUP             0       ****    0 ROOT    
@<TRIPOS>MOLECULE
Cpd2-1000
70   73    1
SMALL
USER_CHARGES


@<TRIPOS>ATOM
      1 C1         -6.4473   -1.1557   -0.2042 C.3       1 UNK         0.0000 
      2 H2         -6.3639   -0.7356   -1.2070 H         1 UNK         0.0000 
      3 H3         -7.1799   -1.9681   -0.2216 H         1 UNK         0.0000 
      4 H4         -6.8081   -0.3835    0.4821 H         1 UNK         0.0000 
      5 C5         -5.1087   -1.7040    0.2808 C.3       1 UNK         0.0000 
      6 C6         -5.2493   -2.3067    1.6738 C.3       1 UNK         0.0000 
      7 H7         -5.6330   -1.5610    2.3758 H         1 UNK         0.0000 
      8 H8         -5.9456   -3.1488    1.6426 H         1 UNK         0.0000 
      9 H9         -4.2813   -2.6658    2.0341 H         1 UNK         0.0000 
     10 C10        -4.5100   -2.7215   -0.6858 C.3       1 UNK         0.0000 
     11 H11        -4.4324   -2.3150   -1.6947 H         1 UNK         0.0000 
     12 H12        -3.5158   -3.0254   -0.3445 H         1 UNK         0.0000 
     13 H13        -5.1514   -3.6074   -0.7109 H         1 UNK         0.0000 
     14 O14        -4.1669   -0.6054    0.5006 O.3       1 UNK         0.0000 
     15 C15        -3.7585    0.1641   -0.5203 C.2       1 UNK         0.0000 
     16 O16        -4.1335    0.0855   -1.6771 O.2       1 UNK         0.0000 
     17 N17        -2.8358    1.0691   -0.0834 N.am      1 UNK         0.0000 
     18 H18        -2.5713    1.0491    0.8929 H         1 UNK         0.0000 
     19 C19        -2.2425    2.0333   -0.9829 C.3       1 UNK         0.0000 
     20 C20        -1.0289    1.4873   -1.7589 C.2       1 UNK         0.0000 
     21 N21        -0.5244    0.3087   -1.3351 N.am      1 UNK         0.0000 
     22 H22        -1.0425   -0.2343   -0.6536 H         1 UNK         0.0000 
     23 O23        -0.5651    2.1268   -2.6977 O.2       1 UNK         0.0000 
     24 H24        -2.9826    2.2722   -1.7523 H         1 UNK         0.0000 
     25 C25        -1.8766    3.3370   -0.2347 C.3       1 UNK         0.0000 
     26 H26        -2.7990    3.7540    0.1801 H         1 UNK         0.0000 
     27 H27        -1.4848    4.0390   -0.9751 H         1 UNK         0.0000 
     28 C28        -0.8584    3.0794    0.8477 C.ar      1 UNK         0.0000 
     29 C29        -1.2458    2.7214    2.1446 C.ar      1 UNK         0.0000 
     30 C30        -0.3215    2.2095    3.0593 C.ar      1 UNK         0.0000 
     31 H31        -0.6303    1.8562    4.0380 H         1 UNK         0.0000 
     32 H32        -2.2916    2.7983    2.4344 H         1 UNK         0.0000 
     33 C33         0.5046    3.0571    0.5271 C.ar      1 UNK         0.0000 
     34 H34         0.8305    3.3648   -0.4641 H         1 UNK         0.0000 
     35 C35         1.4364    2.5777    1.4378 C.ar      1 UNK         0.0000 
     36 H36         2.4884    2.5116    1.1788 H         1 UNK         0.0000 
     37 C37         1.0035    2.0842    2.6651 C.ar      1 UNK         0.0000 
     38 O38         1.9087    1.3668    3.4483 O.3       1 UNK         0.0000 
     39 C39         2.2281    0.1667    2.8338 C.ar      1 UNK         0.0000 
     40 C40         3.5643   -0.1283    2.5711 C.ar      1 UNK         0.0000 
     41 C41         3.8738   -1.2723    1.8376 C.ar      1 UNK         0.0000 
     42 H42         4.9051   -1.4950    1.5807 H         1 UNK         0.0000 
     43 H43         4.3362    0.5610    2.8974 H         1 UNK         0.0000 
     44 C44         1.2108   -0.7076    2.4424 C.ar      1 UNK         0.0000 
     45 H45         0.1776   -0.4755    2.6789 H         1 UNK         0.0000 
     46 C46         1.5270   -1.8333    1.6961 C.ar      1 UNK         0.0000 
     47 H47         0.7251   -2.4795    1.3551 H         1 UNK         0.0000 
     48 C48         2.8580   -2.1070    1.3588 C.ar      1 UNK         0.0000 
     49 C49         3.2060   -3.2165    0.4235 C.2       1 UNK         0.0000 
     50 O50         4.2843   -3.7770    0.4583 O.2       1 UNK         0.0000 
     51 C51         2.1881   -3.5727   -0.6728 C.3       1 UNK         0.0000 
     52 H52         2.6437   -4.3297   -1.3133 H         1 UNK         0.0000 
     53 H53         1.2699   -3.9780   -0.2395 H         1 UNK         0.0000 
     54 N54         1.8351   -2.3926   -1.4425 N.am      1 UNK         0.0000 
     55 H55         2.5829   -1.8979   -1.9129 H         1 UNK         0.0000 
     56 C56         0.6369   -1.7767   -1.3489 C.2       1 UNK         0.0000 
     57 O57        -0.3195   -2.2477   -0.7411 O.2       1 UNK         0.0000 
     58 C58         0.5129   -0.4066   -2.0582 C.3       1 UNK         0.0000 
     59 H59         0.1692   -0.6051   -3.0839 H         1 UNK         0.0000 
     60 C60         1.8323    0.3393   -2.1298 C.ar      1 UNK         0.0000 
     61 C61         2.3784    0.6972   -3.3620 C.ar      1 UNK         0.0000 
     62 H62         1.8256    0.4883   -4.2739 H         1 UNK         0.0000 
     63 C63         3.6171    1.3367   -3.4254 C.ar      1 UNK         0.0000 
     64 H64         4.0303    1.6179   -4.3887 H         1 UNK         0.0000 
     65 C65         4.3193    1.6149   -2.2542 C.ar      1 UNK         0.0000 
     66 H66         5.2850    2.1079   -2.3019 H         1 UNK         0.0000 
     67 C67         3.7781    1.2545   -1.0183 C.ar      1 UNK         0.0000 
     68 H68         4.3273    1.4562   -0.1023 H         1 UNK         0.0000 
     69 C69         2.5397    0.6215   -0.9579 C.ar      1 UNK         0.0000 
     70 H70         2.1185    0.3322    0.0031 H         1 UNK         0.0000 
@<TRIPOS>BOND
     1    1    5 1    
     2    1    4 1    
     3    1    2 1    
     4    1    3 1    
     5    5   14 1    
     6    5    6 1    
     7    5   10 1    
     8    6    9 1    
     9    6    7 1    
    10    6    8 1    
    11   10   12 1    
    12   10   11 1    
    13   10   13 1    
    14   14   15 1    
    15   15   17 am   BACKBONE|DICT|INTERRES
    16   15   16 2    
    17   17   18 1    
    18   17   19 1    
    19   19   24 1    
    20   19   25 1    
    21   19   20 1    
    22   20   21 am   BACKBONE|DICT|INTERRES
    23   20   23 2    
    24   21   22 1    
    25   21   58 1    
    26   25   26 1    
    27   25   28 1    
    28   25   27 1    
    29   28   29 ar   
    30   28   33 ar   
    31   29   32 1    
    32   29   30 ar   
    33   30   31 1    
    34   30   37 ar   
    35   33   35 ar   
    36   33   34 1    
    37   35   37 ar   
    38   35   36 1    
    39   37   38 1    
    40   38   39 1    
    41   39   40 ar   
    42   39   44 ar   
    43   40   43 1    
    44   40   41 ar   
    45   41   42 1    
    46   41   48 ar   
    47   44   45 1    
    48   44   46 ar   
    49   46   47 1    
    50   46   48 ar   
    51   48   49 1    
    52   49   50 2    
    53   49   51 1    
    54   51   53 1    
    55   51   52 1    
    56   51   54 1    
    57   54   56 am   BACKBONE|DICT|INTERRES
    58   54   55 1    
    59   56   57 2    
    60   56   58 1    
    61   58   59 1    
    62   58   60 1    
    63   60   69 ar   
    64   60   61 ar   
    65   61   62 1    
    66   61   63 ar   
    67   63   65 ar   
    68   63   64 1    
    69   65   67 ar   
    70   65   66 1    
    71   67   69 ar   
    72   67   68 1    
    73   69   70 1    
@<TRIPOS>SUBSTRUCTURE
     1 UNK         1 GROUP             0       ****    0 ROOT    
@<TRIPOS>MOLECULE
Cpd2-1500
70   73    1
SMALL
USER_CHARGES


@<TRIPOS>ATOM
      1 C1         -6.4477   -1.1553   -0.2011 C.3       1 UNK         0.0000 
      2 H2         -7.1805   -1.9675   -0.2177 H         1 UNK         0.0000 
      3 H3         -6.8079   -0.3828    0.4852 H         1 UNK         0.0000 
      4 H4         -6.3651   -0.7355   -1.2040 H         1 UNK         0.0000 
      5 C5         -5.1089   -1.7035    0.2830 C.3       1 UNK         0.0000 
      6 C6         -5.2487   -2.3062    1.6761 C.3       1 UNK         0.0000 
      7 H7         -5.6321   -1.5606    2.3783 H         1 UNK         0.0000 
      8 H8         -5.9448   -3.1484    1.6454 H         1 UNK         0.0000 
      9 H9         -4.2803   -2.6651    2.0359 H         1 UNK         0.0000 
     10 C10        -4.5108   -2.7211   -0.6840 C.3       1 UNK         0.0000 
     11 H11        -4.4335   -2.3145   -1.6928 H         1 UNK         0.0000 
     12 H12        -3.5166   -3.0254   -0.3431 H         1 UNK         0.0000 
     13 H13        -5.1524   -3.6069   -0.7090 H         1 UNK         0.0000 
     14 O14        -4.1669   -0.6051    0.5023 O.3       1 UNK         0.0000 
     15 C15        -3.7588    0.1643   -0.5190 C.2       1 UNK         0.0000 
     16 O16        -4.1349    0.0858   -1.6756 O.2       1 UNK         0.0000 
     17 N17        -2.8355    1.0689   -0.0828 N.am      1 UNK         0.0000 
     18 H18        -2.5702    1.0487    0.8933 H         1 UNK         0.0000 
     19 C19        -2.2426    2.0330   -0.9826 C.3       1 UNK         0.0000 
     20 C20        -1.0290    1.4872   -1.7587 C.2       1 UNK         0.0000 
     21 N21        -0.5243    0.3086   -1.3350 N.am      1 UNK         0.0000 
     22 H22        -1.0425   -0.2345   -0.6536 H         1 UNK         0.0000 
     23 O23        -0.5653    2.1267   -2.6974 O.2       1 UNK         0.0000 
     24 H24        -2.9829    2.2716   -1.7517 H         1 UNK         0.0000 
     25 C25        -1.8767    3.3370   -0.2346 C.3       1 UNK         0.0000 
     26 H26        -2.7991    3.7539    0.1802 H         1 UNK         0.0000 
     27 H27        -1.4850    4.0388   -0.9751 H         1 UNK         0.0000 
     28 C28        -0.8584    3.0795    0.8478 C.ar      1 UNK         0.0000 
     29 C29        -1.2457    2.7217    2.1447 C.ar      1 UNK         0.0000 
     30 C30        -0.3214    2.2098    3.0594 C.ar      1 UNK         0.0000 
     31 H31        -0.6301    1.8566    4.0381 H         1 UNK         0.0000 
     32 H32        -2.2915    2.7986    2.4347 H         1 UNK         0.0000 
     33 C33         0.5045    3.0571    0.5270 C.ar      1 UNK         0.0000 
     34 H34         0.8304    3.3647   -0.4642 H         1 UNK         0.0000 
     35 C35         1.4364    2.5777    1.4377 C.ar      1 UNK         0.0000 
     36 H36         2.4883    2.5115    1.1785 H         1 UNK         0.0000 
     37 C37         1.0035    2.0843    2.6651 C.ar      1 UNK         0.0000 
     38 O38         1.9087    1.3669    3.4481 O.3       1 UNK         0.0000 
     39 C39         2.2281    0.1667    2.8337 C.ar      1 UNK         0.0000 
     40 C40         3.5644   -0.1284    2.5714 C.ar      1 UNK         0.0000 
     41 C41         3.8738   -1.2725    1.8379 C.ar      1 UNK         0.0000 
     42 H42         4.9052   -1.4954    1.5814 H         1 UNK         0.0000 
     43 H43         4.3362    0.5606    2.8979 H         1 UNK         0.0000 
     44 C44         1.2107   -0.7073    2.4419 C.ar      1 UNK         0.0000 
     45 H45         0.1776   -0.4750    2.6781 H         1 UNK         0.0000 
     46 C46         1.5270   -1.8330    1.6957 C.ar      1 UNK         0.0000 
     47 H47         0.7250   -2.4790    1.3544 H         1 UNK         0.0000 
     48 C48         2.8580   -2.1070    1.3588 C.ar      1 UNK         0.0000 
     49 C49         3.2060   -3.2166    0.4236 C.2       1 UNK         0.0000 
     50 O50         4.2842   -3.7774    0.4588 O.2       1 UNK         0.0000 
     51 C51         2.1883   -3.5726   -0.6729 C.3       1 UNK         0.0000 
     52 H52         2.6441   -4.3294   -1.3135 H         1 UNK         0.0000 
     53 H53         1.2701   -3.9780   -0.2400 H         1 UNK         0.0000 
     54 N54         1.8353   -2.3924   -1.4426 N.am      1 UNK         0.0000 
     55 H55         2.5832   -1.8973   -1.9125 H         1 UNK         0.0000 
     56 C56         0.6369   -1.7768   -1.3492 C.2       1 UNK         0.0000 
     57 O57        -0.3195   -2.2481   -0.7418 O.2       1 UNK         0.0000 
     58 C58         0.5129   -0.4066   -2.0583 C.3       1 UNK         0.0000 
     59 H59         0.1690   -0.6050   -3.0839 H         1 UNK         0.0000 
     60 C60         1.8322    0.3392   -2.1301 C.ar      1 UNK         0.0000 
     61 C61         2.3783    0.6970   -3.3623 C.ar      1 UNK         0.0000 
     62 H62         1.8255    0.4880   -4.2741 H         1 UNK         0.0000 
     63 C63         3.6170    1.3366   -3.4258 C.ar      1 UNK         0.0000 
     64 H64         4.0302    1.6176   -4.3892 H         1 UNK         0.0000 
     65 C65         4.3192    1.6150   -2.2546 C.ar      1 UNK         0.0000 
     66 H66         5.2849    2.1080   -2.3025 H         1 UNK         0.0000 
     67 C67         3.7781    1.2548   -1.0188 C.ar      1 UNK         0.0000 
     68 H68         4.3273    1.4566   -0.1027 H         1 UNK         0.0000 
     69 C69         2.5397    0.6217   -0.9581 C.ar      1 UNK         0.0000 
     70 H70         2.1186    0.3325    0.0028 H         1 UNK         0.0000 
@<TRIPOS>BOND
     1    1    2 1    
     2    1    4 1    
     3    1    3 1    
     4    1    5 1    
     5    5   10 1    
     6    5    6 1    
     7    5   14 1    
     8    6    8 1    
     9    6    7 1    
    10    6    9 1    
    11   10   13 1    
    12   10   11 1    
    13   10   12 1    
    14   14   15 1    
    15   15   16 2    
    16   15   17 am   BACKBONE|DICT|INTERRES
    17   17   19 1    
    18   17   18 1    
    19   19   24 1    
    20   19   20 1    
    21   19   25 1    
    22   20   23 2    
    23   20   21 am   BACKBONE|DICT|INTERRES
    24   21   58 1    
    25   21   22 1    
    26   25   27 1    
    27   25   26 1    
    28   25   28 1    
    29   28   33 ar   
    30   28   29 ar   
    31   29   30 ar   
    32   29   32 1    
    33   30   37 ar   
    34   30   31 1    
    35   33   34 1    
    36   33   35 ar   
    37   35   36 1    
    38   35   37 ar   
    39   37   38 1    
    40   38   39 1    
    41   39   40 ar   
    42   39   44 ar   
    43   40   41 ar   
    44   40   43 1    
    45   41   42 1    
    46   41   48 ar   
    47   44   46 ar   
    48   44   45 1    
    49   46   47 1    
    50   46   48 ar   
    51   48   49 1    
    52   49   51 1    
    53   49   50 2    
    54   51   52 1    
    55   51   54 1    
    56   51   53 1    
    57   54   55 1    
    58   54   56 am   BACKBONE|DICT|INTERRES
    59   56   58 1    
    60   56   57 2    
    61   58   60 1    
    62   58   59 1    
    63   60   61 ar   
    64   60   69 ar   
    65   61   63 ar   
    66   61   62 1    
    67   63   64 1    
    68   63   65 ar   
    69   65   66 1    
    70   65   67 ar   
    71   67   68 1    
    72   67   69 ar   
    73   69   70 1    
@<TRIPOS>SUBSTRUCTURE
     1 UNK         1 GROUP             0       ****    0 ROOT    
@<TRIPOS>MOLECULE
Cpd2-2000-MEC-MRC
70   73    1
SMALL
USER_CHARGES


@<TRIPOS>ATOM
      1 C1         -6.5041   -1.0556   -0.1288 C.3       1 UNK         0.0000 
      2 H2         -6.4258   -0.6421   -1.1347 H         1 UNK         0.0000 
      3 H3         -7.2597   -1.8467   -0.1300 H         1 UNK         0.0000 
      4 H4         -6.8308   -0.2706    0.5600 H         1 UNK         0.0000 
      5 C5         -5.1737   -1.6401    0.3359 C.3       1 UNK         0.0000 
      6 C6         -5.3087   -2.2344    1.7331 C.3       1 UNK         0.0000 
      7 H7         -5.6599   -1.4762    2.4386 H         1 UNK         0.0000 
      8 H8         -6.0287   -3.0566    1.7159 H         1 UNK         0.0000 
      9 H9         -4.3455   -2.6195    2.0792 H         1 UNK         0.0000 
     10 C10        -4.6203   -2.6771   -0.6368 C.3       1 UNK         0.0000 
     11 H11        -3.6322   -3.0123   -0.3078 H         1 UNK         0.0000 
     12 H12        -5.2897   -3.5423   -0.6524 H         1 UNK         0.0000 
     13 H13        -4.5431   -2.2743   -1.6473 H         1 UNK         0.0000 
     14 O14        -4.1973   -0.5684    0.5364 O.3       1 UNK         0.0000 
     15 C15        -3.7862    0.1883   -0.4932 C.2       1 UNK         0.0000 
     16 O16        -4.1849    0.1188   -1.6427 O.2       1 UNK         0.0000 
     17 N17        -2.8302    1.0669   -0.0740 N.am      1 UNK         0.0000 
     18 H18        -2.5588    1.0481    0.9004 H         1 UNK         0.0000 
     19 C19        -2.2418    2.0303   -0.9776 C.3       1 UNK         0.0000 
     20 C20        -1.0286    1.4855   -1.7549 C.2       1 UNK         0.0000 
     21 N21        -0.5270    0.3038   -1.3362 N.am      1 UNK         0.0000 
     22 H22        -1.0488   -0.2413   -0.6590 H         1 UNK         0.0000 
     23 O23        -0.5629    2.1285   -2.6903 O.2       1 UNK         0.0000 
     24 H24        -2.9851    2.2645   -1.7451 H         1 UNK         0.0000 
     25 C25        -1.8766    3.3372   -0.2341 C.3       1 UNK         0.0000 
     26 H26        -2.7990    3.7549    0.1799 H         1 UNK         0.0000 
     27 H27        -1.4853    4.0369   -0.9769 H         1 UNK         0.0000 
     28 C28        -0.8579    3.0825    0.8486 C.ar      1 UNK         0.0000 
     29 C29        -1.2448    2.7270    2.1463 C.ar      1 UNK         0.0000 
     30 C30        -0.3207    2.2146    3.0609 C.ar      1 UNK         0.0000 
     31 H31        -0.6292    1.8627    4.0401 H         1 UNK         0.0000 
     32 H32        -2.2904    2.8055    2.4368 H         1 UNK         0.0000 
     33 C33         0.5048    3.0581    0.5269 C.ar      1 UNK         0.0000 
     34 H34         0.8305    3.3642   -0.4648 H         1 UNK         0.0000 
     35 C35         1.4365    2.5782    1.4376 C.ar      1 UNK         0.0000 
     36 H36         2.4882    2.5100    1.1778 H         1 UNK         0.0000 
     37 C37         1.0036    2.0863    2.6656 C.ar      1 UNK         0.0000 
     38 O38         1.9080    1.3673    3.4481 O.3       1 UNK         0.0000 
     39 C39         2.2269    0.1676    2.8327 C.ar      1 UNK         0.0000 
     40 C40         3.5635   -0.1294    2.5736 C.ar      1 UNK         0.0000 
     41 C41         3.8733   -1.2734    1.8402 C.ar      1 UNK         0.0000 
     42 H42         4.9050   -1.4976    1.5865 H         1 UNK         0.0000 
     43 H43         4.3355    0.5583    2.9028 H         1 UNK         0.0000 
     44 C44         1.2093   -0.7046    2.4372 C.ar      1 UNK         0.0000 
     45 H45         0.1758   -0.4708    2.6704 H         1 UNK         0.0000 
     46 C46         1.5260   -1.8303    1.6912 C.ar      1 UNK         0.0000 
     47 H47         0.7240   -2.4750    1.3475 H         1 UNK         0.0000 
     48 C48         2.8576   -2.1062    1.3580 C.ar      1 UNK         0.0000 
     49 C49         3.2067   -3.2165    0.4241 C.2       1 UNK         0.0000 
     50 O50         4.2840   -3.7787    0.4623 O.2       1 UNK         0.0000 
     51 C51         2.1913   -3.5724   -0.6746 C.3       1 UNK         0.0000 
     52 H52         2.6494   -4.3278   -1.3154 H         1 UNK         0.0000 
     53 H53         1.2732   -3.9801   -0.2436 H         1 UNK         0.0000 
     54 N54         1.8375   -2.3918   -1.4432 N.am      1 UNK         0.0000 
     55 H55         2.5856   -1.8934   -1.9092 H         1 UNK         0.0000 
     56 C56         0.6368   -1.7803   -1.3531 C.2       1 UNK         0.0000 
     57 O57        -0.3199   -2.2557   -0.7494 O.2       1 UNK         0.0000 
     58 C58         0.5101   -0.4100   -2.0612 C.3       1 UNK         0.0000 
     59 H59         0.1650   -0.6086   -3.0864 H         1 UNK         0.0000 
     60 C60         1.8285    0.3373   -2.1353 C.ar      1 UNK         0.0000 
     61 C61         2.3742    0.6908   -3.3690 C.ar      1 UNK         0.0000 
     62 H62         1.8215    0.4779   -4.2800 H         1 UNK         0.0000 
     63 C63         3.6124    1.3311   -3.4351 C.ar      1 UNK         0.0000 
     64 H64         4.0252    1.6088   -4.3995 H         1 UNK         0.0000 
     65 C65         4.3145    1.6145   -2.2650 C.ar      1 UNK         0.0000 
     66 H66         5.2798    2.1080   -2.3148 H         1 UNK         0.0000 
     67 C67         3.7740    1.2582   -1.0277 C.ar      1 UNK         0.0000 
     68 H68         4.3234    1.4638   -0.1127 H         1 UNK         0.0000 
     69 C69         2.5361    0.6241   -0.9645 C.ar      1 UNK         0.0000 
     70 H70         2.1157    0.3375   -0.0024 H         1 UNK         0.0000 
@<TRIPOS>BOND
     1    1    5 1    
     2    1    4 1    
     3    1    2 1    
     4    1    3 1    
     5    5   14 1    
     6    5    6 1    
     7    5   10 1    
     8    6    9 1    
     9    6    7 1    
    10    6    8 1    
    11   10   11 1    
    12   10   12 1    
    13   10   13 1    
    14   14   15 1    
    15   15   17 am   BACKBONE|DICT|INTERRES
    16   15   16 2    
    17   17   18 1    
    18   17   19 1    
    19   19   24 1    
    20   19   25 1    
    21   19   20 1    
    22   20   21 am   BACKBONE|DICT|INTERRES
    23   20   23 2    
    24   21   22 1    
    25   21   58 1    
    26   25   26 1    
    27   25   28 1    
    28   25   27 1    
    29   28   29 ar   
    30   28   33 ar   
    31   29   32 1    
    32   29   30 ar   
    33   30   31 1    
    34   30   37 ar   
    35   33   35 ar   
    36   33   34 1    
    37   35   37 ar   
    38   35   36 1    
    39   37   38 1    
    40   38   39 1    
    41   39   40 ar   
    42   39   44 ar   
    43   40   43 1    
    44   40   41 ar   
    45   41   42 1    
    46   41   48 ar   
    47   44   45 1    
    48   44   46 ar   
    49   46   47 1    
    50   46   48 ar   
    51   48   49 1    
    52   49   50 2    
    53   49   51 1    
    54   51   53 1    
    55   51   52 1    
    56   51   54 1    
    57   54   56 am   BACKBONE|DICT|INTERRES
    58   54   55 1    
    59   56   57 2    
    60   56   58 1    
    61   58   59 1    
    62   58   60 1    
    63   60   69 ar   
    64   60   61 ar   
    65   61   62 1    
    66   61   63 ar   
    67   63   65 ar   
    68   63   64 1    
    69   65   67 ar   
    70   65   66 1    
    71   67   69 ar   
    72   67   68 1    
    73   69   70 1    
@<TRIPOS>SUBSTRUCTURE
     1 UNK         1 GROUP             0       ****    0 ROOT    
@<TRIPOS>MOLECULE
Cpd2-2500
70   73    1
SMALL
USER_CHARGES


@<TRIPOS>ATOM
      1 C1         -6.4473   -1.1552   -0.1994 C.3       1 UNK         0.0000 
      2 H2         -7.1802   -1.9674   -0.2160 H         1 UNK         0.0000 
      3 H3         -6.8072   -0.3830    0.4873 H         1 UNK         0.0000 
      4 H4         -6.3650   -0.7352   -1.2022 H         1 UNK         0.0000 
      5 C5         -5.1084   -1.7039    0.2840 C.3       1 UNK         0.0000 
      6 C6         -5.2476   -2.3065    1.6772 C.3       1 UNK         0.0000 
      7 H7         -4.2792   -2.6657    2.0366 H         1 UNK         0.0000 
      8 H8         -5.6304   -1.5608    2.3796 H         1 UNK         0.0000 
      9 H9         -5.9439   -3.1486    1.6469 H         1 UNK         0.0000 
     10 C10        -4.5109   -2.7215   -0.6831 C.3       1 UNK         0.0000 
     11 H11        -3.5165   -3.0257   -0.3429 H         1 UNK         0.0000 
     12 H12        -5.1526   -3.6072   -0.7077 H         1 UNK         0.0000 
     13 H13        -4.4342   -2.3151   -1.6921 H         1 UNK         0.0000 
     14 O14        -4.1662   -0.6054    0.5029 O.3       1 UNK         0.0000 
     15 C15        -3.7586    0.1640   -0.5185 C.2       1 UNK         0.0000 
     16 O16        -4.1349    0.0854   -1.6749 O.2       1 UNK         0.0000 
     17 N17        -2.8353    1.0689   -0.0825 N.am      1 UNK         0.0000 
     18 H18        -2.5699    1.0488    0.8936 H         1 UNK         0.0000 
     19 C19        -2.2426    2.0330   -0.9825 C.3       1 UNK         0.0000 
     20 C20        -1.0291    1.4871   -1.7586 C.2       1 UNK         0.0000 
     21 N21        -0.5243    0.3086   -1.3349 N.am      1 UNK         0.0000 
     22 H22        -1.0421   -0.2344   -0.6532 H         1 UNK         0.0000 
     23 O23        -0.5655    2.1267   -2.6974 O.2       1 UNK         0.0000 
     24 H24        -2.9830    2.2715   -1.7516 H         1 UNK         0.0000 
     25 C25        -1.8768    3.3369   -0.2345 C.3       1 UNK         0.0000 
     26 H26        -2.7991    3.7540    0.1803 H         1 UNK         0.0000 
     27 H27        -1.4851    4.0388   -0.9752 H         1 UNK         0.0000 
     28 C28        -0.8584    3.0797    0.8478 C.ar      1 UNK         0.0000 
     29 C29        -1.2456    2.7220    2.1448 C.ar      1 UNK         0.0000 
     30 C30        -0.3213    2.2100    3.0594 C.ar      1 UNK         0.0000 
     31 H31        -0.6300    1.8570    4.0382 H         1 UNK         0.0000 
     32 H32        -2.2914    2.7991    2.4348 H         1 UNK         0.0000 
     33 C33         0.5044    3.0571    0.5269 C.ar      1 UNK         0.0000 
     34 H34         0.8303    3.3646   -0.4644 H         1 UNK         0.0000 
     35 C35         1.4364    2.5776    1.4376 C.ar      1 UNK         0.0000 
     36 H36         2.4883    2.5112    1.1784 H         1 UNK         0.0000 
     37 C37         1.0035    2.0843    2.6650 C.ar      1 UNK         0.0000 
     38 O38         1.9087    1.3669    3.4481 O.3       1 UNK         0.0000 
     39 C39         2.2280    0.1667    2.8337 C.ar      1 UNK         0.0000 
     40 C40         3.5643   -0.1286    2.5715 C.ar      1 UNK         0.0000 
     41 C41         3.8738   -1.2726    1.8380 C.ar      1 UNK         0.0000 
     42 H42         4.9051   -1.4956    1.5816 H         1 UNK         0.0000 
     43 H43         4.3363    0.5603    2.8982 H         1 UNK         0.0000 
     44 C44         1.2107   -0.7073    2.4418 C.ar      1 UNK         0.0000 
     45 H45         0.1774   -0.4748    2.6777 H         1 UNK         0.0000 
     46 C46         1.5269   -1.8330    1.6955 C.ar      1 UNK         0.0000 
     47 H47         0.7249   -2.4790    1.3544 H         1 UNK         0.0000 
     48 C48         2.8579   -2.1071    1.3588 C.ar      1 UNK         0.0000 
     49 C49         3.2060   -3.2166    0.4237 C.2       1 UNK         0.0000 
     50 O50         4.2841   -3.7775    0.4588 O.2       1 UNK         0.0000 
     51 C51         2.1884   -3.5726   -0.6730 C.3       1 UNK         0.0000 
     52 H52         2.6440   -4.3294   -1.3136 H         1 UNK         0.0000 
     53 H53         1.2701   -3.9780   -0.2401 H         1 UNK         0.0000 
     54 N54         1.8355   -2.3922   -1.4424 N.am      1 UNK         0.0000 
     55 H55         2.5835   -1.8968   -1.9118 H         1 UNK         0.0000 
     56 C56         0.6370   -1.7767   -1.3492 C.2       1 UNK         0.0000 
     57 O57        -0.3194   -2.2483   -0.7420 O.2       1 UNK         0.0000 
     58 C58         0.5130   -0.4066   -2.0582 C.3       1 UNK         0.0000 
     59 H59         0.1691   -0.6049   -3.0838 H         1 UNK         0.0000 
     60 C60         1.8323    0.3394   -2.1300 C.ar      1 UNK         0.0000 
     61 C61         2.3782    0.6972   -3.3623 C.ar      1 UNK         0.0000 
     62 H62         1.8254    0.4882   -4.2740 H         1 UNK         0.0000 
     63 C63         3.6169    1.3369   -3.4259 C.ar      1 UNK         0.0000 
     64 H64         4.0299    1.6179   -4.3892 H         1 UNK         0.0000 
     65 C65         4.3192    1.6152   -2.2548 C.ar      1 UNK         0.0000 
     66 H66         5.2850    2.1082   -2.3027 H         1 UNK         0.0000 
     67 C67         3.7783    1.2549   -1.0188 C.ar      1 UNK         0.0000 
     68 H68         4.3276    1.4567   -0.1030 H         1 UNK         0.0000 
     69 C69         2.5400    0.6217   -0.9581 C.ar      1 UNK         0.0000 
     70 H70         2.1190    0.3324    0.0029 H         1 UNK         0.0000 
@<TRIPOS>BOND
     1    1    2 1    
     2    1    4 1    
     3    1    3 1    
     4    1    5 1    
     5    5   10 1    
     6    5    6 1    
     7    5   14 1    
     8    6    9 1    
     9    6    7 1    
    10    6    8 1    
    11   10   12 1    
    12   10   13 1    
    13   10   11 1    
    14   14   15 1    
    15   15   16 2    
    16   15   17 am   BACKBONE|DICT|INTERRES
    17   17   19 1    
    18   17   18 1    
    19   19   24 1    
    20   19   20 1    
    21   19   25 1    
    22   20   23 2    
    23   20   21 am   BACKBONE|DICT|INTERRES
    24   21   58 1    
    25   21   22 1    
    26   25   27 1    
    27   25   26 1    
    28   25   28 1    
    29   28   33 ar   
    30   28   29 ar   
    31   29   30 ar   
    32   29   32 1    
    33   30   37 ar   
    34   30   31 1    
    35   33   34 1    
    36   33   35 ar   
    37   35   36 1    
    38   35   37 ar   
    39   37   38 1    
    40   38   39 1    
    41   39   40 ar   
    42   39   44 ar   
    43   40   41 ar   
    44   40   43 1    
    45   41   42 1    
    46   41   48 ar   
    47   44   46 ar   
    48   44   45 1    
    49   46   47 1    
    50   46   48 ar   
    51   48   49 1    
    52   49   51 1    
    53   49   50 2    
    54   51   52 1    
    55   51   54 1    
    56   51   53 1    
    57   54   55 1    
    58   54   56 am   BACKBONE|DICT|INTERRES
    59   56   58 1    
    60   56   57 2    
    61   58   60 1    
    62   58   59 1    
    63   60   61 ar   
    64   60   69 ar   
    65   61   63 ar   
    66   61   62 1    
    67   63   64 1    
    68   63   65 ar   
    69   65   66 1    
    70   65   67 ar   
    71   67   68 1    
    72   67   69 ar   
    73   69   70 1    
@<TRIPOS>SUBSTRUCTURE
     1 UNK         1 GROUP             0       ****    0 ROOT    
@<TRIPOS>MOLECULE
Cpd2-3000
70   73    1
SMALL
USER_CHARGES


@<TRIPOS>ATOM
      1 C1         -6.4486   -1.1547   -0.2021 C.3       1 UNK         0.0000 
      2 H2         -6.3655   -0.7346   -1.2049 H         1 UNK         0.0000 
      3 H3         -7.1812   -1.9669   -0.2192 H         1 UNK         0.0000 
      4 H4         -6.8089   -0.3824    0.4842 H         1 UNK         0.0000 
      5 C5         -5.1098   -1.7030    0.2822 C.3       1 UNK         0.0000 
      6 C6         -5.2499   -2.3057    1.6753 C.3       1 UNK         0.0000 
      7 H7         -5.6332   -1.5601    2.3776 H         1 UNK         0.0000 
      8 H8         -5.9462   -3.1478    1.6445 H         1 UNK         0.0000 
      9 H9         -4.2817   -2.6649    2.0353 H         1 UNK         0.0000 
     10 C10        -4.5115   -2.7205   -0.6846 C.3       1 UNK         0.0000 
     11 H11        -3.5172   -3.0244   -0.3438 H         1 UNK         0.0000 
     12 H12        -5.1528   -3.6066   -0.7093 H         1 UNK         0.0000 
     13 H13        -4.4346   -2.3142   -1.6935 H         1 UNK         0.0000 
     14 O14        -4.1679   -0.6045    0.5018 O.3       1 UNK         0.0000 
     15 C15        -3.7593    0.1646   -0.5195 C.2       1 UNK         0.0000 
     16 O16        -4.1352    0.0862   -1.6760 O.2       1 UNK         0.0000 
     17 N17        -2.8356    1.0688   -0.0832 N.am      1 UNK         0.0000 
     18 H18        -2.5708    1.0488    0.8931 H         1 UNK         0.0000 
     19 C19        -2.2426    2.0331   -0.9827 C.3       1 UNK         0.0000 
     20 C20        -1.0288    1.4872   -1.7587 C.2       1 UNK         0.0000 
     21 N21        -0.5243    0.3086   -1.3350 N.am      1 UNK         0.0000 
     22 H22        -1.0426   -0.2345   -0.6538 H         1 UNK         0.0000 
     23 O23        -0.5650    2.1268   -2.6974 O.2       1 UNK         0.0000 
     24 H24        -2.9827    2.2717   -1.7520 H         1 UNK         0.0000 
     25 C25        -1.8768    3.3369   -0.2346 C.3       1 UNK         0.0000 
     26 H26        -2.7992    3.7538    0.1803 H         1 UNK         0.0000 
     27 H27        -1.4852    4.0389   -0.9750 H         1 UNK         0.0000 
     28 C28        -0.8585    3.0795    0.8479 C.ar      1 UNK         0.0000 
     29 C29        -1.2458    2.7215    2.1447 C.ar      1 UNK         0.0000 
     30 C30        -0.3214    2.2096    3.0594 C.ar      1 UNK         0.0000 
     31 H31        -0.6301    1.8564    4.0381 H         1 UNK         0.0000 
     32 H32        -2.2916    2.7984    2.4347 H         1 UNK         0.0000 
     33 C33         0.5044    3.0572    0.5270 C.ar      1 UNK         0.0000 
     34 H34         0.8303    3.3649   -0.4642 H         1 UNK         0.0000 
     35 C35         1.4363    2.5779    1.4377 C.ar      1 UNK         0.0000 
     36 H36         2.4883    2.5118    1.1786 H         1 UNK         0.0000 
     37 C37         1.0035    2.0843    2.6651 C.ar      1 UNK         0.0000 
     38 O38         1.9088    1.3669    3.4481 O.3       1 UNK         0.0000 
     39 C39         2.2281    0.1668    2.8336 C.ar      1 UNK         0.0000 
     40 C40         3.5644   -0.1284    2.5713 C.ar      1 UNK         0.0000 
     41 C41         3.8739   -1.2724    1.8378 C.ar      1 UNK         0.0000 
     42 H42         4.9052   -1.4953    1.5813 H         1 UNK         0.0000 
     43 H43         4.3362    0.5607    2.8978 H         1 UNK         0.0000 
     44 C44         1.2108   -0.7074    2.4420 C.ar      1 UNK         0.0000 
     45 H45         0.1776   -0.4750    2.6782 H         1 UNK         0.0000 
     46 C46         1.5269   -1.8330    1.6957 C.ar      1 UNK         0.0000 
     47 H47         0.7250   -2.4791    1.3546 H         1 UNK         0.0000 
     48 C48         2.8580   -2.1070    1.3588 C.ar      1 UNK         0.0000 
     49 C49         3.2060   -3.2166    0.4236 C.2       1 UNK         0.0000 
     50 O50         4.2841   -3.7774    0.4587 O.2       1 UNK         0.0000 
     51 C51         2.1882   -3.5727   -0.6728 C.3       1 UNK         0.0000 
     52 H52         2.6437   -4.3298   -1.3133 H         1 UNK         0.0000 
     53 H53         1.2699   -3.9780   -0.2396 H         1 UNK         0.0000 
     54 N54         1.8353   -2.3925   -1.4426 N.am      1 UNK         0.0000 
     55 H55         2.5832   -1.8976   -1.9125 H         1 UNK         0.0000 
     56 C56         0.6370   -1.7768   -1.3491 C.2       1 UNK         0.0000 
     57 O57        -0.3195   -2.2481   -0.7417 O.2       1 UNK         0.0000 
     58 C58         0.5129   -0.4066   -2.0583 C.3       1 UNK         0.0000 
     59 H59         0.1691   -0.6051   -3.0839 H         1 UNK         0.0000 
     60 C60         1.8322    0.3393   -2.1300 C.ar      1 UNK         0.0000 
     61 C61         2.3784    0.6971   -3.3622 C.ar      1 UNK         0.0000 
     62 H62         1.8257    0.4881   -4.2740 H         1 UNK         0.0000 
     63 C63         3.6171    1.3367   -3.4256 C.ar      1 UNK         0.0000 
     64 H64         4.0303    1.6177   -4.3889 H         1 UNK         0.0000 
     65 C65         4.3192    1.6152   -2.2543 C.ar      1 UNK         0.0000 
     66 H66         5.2849    2.1082   -2.3021 H         1 UNK         0.0000 
     67 C67         3.7780    1.2550   -1.0185 C.ar      1 UNK         0.0000 
     68 H68         4.3271    1.4569   -0.1025 H         1 UNK         0.0000 
     69 C69         2.5396    0.6218   -0.9580 C.ar      1 UNK         0.0000 
     70 H70         2.1183    0.3327    0.0029 H         1 UNK         0.0000 
@<TRIPOS>BOND
     1    1    5 1    
     2    1    4 1    
     3    1    2 1    
     4    1    3 1    
     5    5   14 1    
     6    5    6 1    
     7    5   10 1    
     8    6    9 1    
     9    6    7 1    
    10    6    8 1    
    11   10   11 1    
    12   10   12 1    
    13   10   13 1    
    14   14   15 1    
    15   15   17 am   BACKBONE|DICT|INTERRES
    16   15   16 2    
    17   17   18 1    
    18   17   19 1    
    19   19   24 1    
    20   19   25 1    
    21   19   20 1    
    22   20   21 am   BACKBONE|DICT|INTERRES
    23   20   23 2    
    24   21   22 1    
    25   21   58 1    
    26   25   26 1    
    27   25   28 1    
    28   25   27 1    
    29   28   29 ar   
    30   28   33 ar   
    31   29   32 1    
    32   29   30 ar   
    33   30   31 1    
    34   30   37 ar   
    35   33   35 ar   
    36   33   34 1    
    37   35   37 ar   
    38   35   36 1    
    39   37   38 1    
    40   38   39 1    
    41   39   40 ar   
    42   39   44 ar   
    43   40   43 1    
    44   40   41 ar   
    45   41   42 1    
    46   41   48 ar   
    47   44   45 1    
    48   44   46 ar   
    49   46   47 1    
    50   46   48 ar   
    51   48   49 1    
    52   49   50 2    
    53   49   51 1    
    54   51   53 1    
    55   51   52 1    
    56   51   54 1    
    57   54   56 am   BACKBONE|DICT|INTERRES
    58   54   55 1    
    59   56   57 2    
    60   56   58 1    
    61   58   59 1    
    62   58   60 1    
    63   60   69 ar   
    64   60   61 ar   
    65   61   62 1    
    66   61   63 ar   
    67   63   65 ar   
    68   63   64 1    
    69   65   67 ar   
    70   65   66 1    
    71   67   69 ar   
    72   67   68 1    
    73   69   70 1    
@<TRIPOS>SUBSTRUCTURE
     1 UNK         1 GROUP             0       ****    0 ROOT    
@<TRIPOS>MOLECULE
Cpd2-3500
70   73    1
SMALL
USER_CHARGES


@<TRIPOS>ATOM
      1 C1         -6.4478   -1.1555   -0.2051 C.3       1 UNK         0.0000 
      2 H2         -6.8085   -0.3834    0.4811 H         1 UNK         0.0000 
      3 H3         -6.3644   -0.7355   -1.2079 H         1 UNK         0.0000 
      4 H4         -7.1804   -1.9679   -0.2225 H         1 UNK         0.0000 
      5 C5         -5.1093   -1.7040    0.2799 C.3       1 UNK         0.0000 
      6 C6         -5.2501   -2.3069    1.6727 C.3       1 UNK         0.0000 
      7 H7         -5.9462   -3.1492    1.6413 H         1 UNK         0.0000 
      8 H8         -4.2820   -2.6660    2.0331 H         1 UNK         0.0000 
      9 H9         -5.6340   -1.5615    2.3748 H         1 UNK         0.0000 
     10 C10        -4.5104   -2.7212   -0.6868 C.3       1 UNK         0.0000 
     11 H11        -3.5163   -3.0252   -0.3455 H         1 UNK         0.0000 
     12 H12        -5.1518   -3.6072   -0.7123 H         1 UNK         0.0000 
     13 H13        -4.4327   -2.3145   -1.6957 H         1 UNK         0.0000 
     14 O14        -4.1674   -0.6055    0.5001 O.3       1 UNK         0.0000 
     15 C15        -3.7590    0.1643   -0.5206 C.2       1 UNK         0.0000 
     16 O16        -4.1342    0.0860   -1.6774 O.2       1 UNK         0.0000 
     17 N17        -2.8359    1.0689   -0.0837 N.am      1 UNK         0.0000 
     18 H18        -2.5715    1.0488    0.8927 H         1 UNK         0.0000 
     19 C19        -2.2425    2.0332   -0.9830 C.3       1 UNK         0.0000 
     20 C20        -1.0287    1.4874   -1.7587 C.2       1 UNK         0.0000 
     21 N21        -0.5243    0.3086   -1.3351 N.am      1 UNK         0.0000 
     22 H22        -1.0428   -0.2345   -0.6539 H         1 UNK         0.0000 
     23 O23        -0.5647    2.1270   -2.6972 O.2       1 UNK         0.0000 
     24 H24        -2.9825    2.2720   -1.7523 H         1 UNK         0.0000 
     25 C25        -1.8768    3.3369   -0.2346 C.3       1 UNK         0.0000 
     26 H26        -2.7993    3.7537    0.1803 H         1 UNK         0.0000 
     27 H27        -1.4852    4.0390   -0.9749 H         1 UNK         0.0000 
     28 C28        -0.8585    3.0793    0.8479 C.ar      1 UNK         0.0000 
     29 C29        -1.2457    2.7213    2.1447 C.ar      1 UNK         0.0000 
     30 C30        -0.3214    2.2096    3.0594 C.ar      1 UNK         0.0000 
     31 H31        -0.6301    1.8563    4.0381 H         1 UNK         0.0000 
     32 H32        -2.2915    2.7984    2.4346 H         1 UNK         0.0000 
     33 C33         0.5044    3.0570    0.5271 C.ar      1 UNK         0.0000 
     34 H34         0.8303    3.3648   -0.4642 H         1 UNK         0.0000 
     35 C35         1.4363    2.5778    1.4378 C.ar      1 UNK         0.0000 
     36 H36         2.4883    2.5117    1.1786 H         1 UNK         0.0000 
     37 C37         1.0034    2.0842    2.6651 C.ar      1 UNK         0.0000 
     38 O38         1.9087    1.3670    3.4482 O.3       1 UNK         0.0000 
     39 C39         2.2281    0.1669    2.8337 C.ar      1 UNK         0.0000 
     40 C40         3.5644   -0.1282    2.5711 C.ar      1 UNK         0.0000 
     41 C41         3.8739   -1.2723    1.8376 C.ar      1 UNK         0.0000 
     42 H42         4.9052   -1.4951    1.5809 H         1 UNK         0.0000 
     43 H43         4.3362    0.5609    2.8975 H         1 UNK         0.0000 
     44 C44         1.2108   -0.7074    2.4421 C.ar      1 UNK         0.0000 
     45 H45         0.1777   -0.4751    2.6786 H         1 UNK         0.0000 
     46 C46         1.5270   -1.8329    1.6958 C.ar      1 UNK         0.0000 
     47 H47         0.7251   -2.4790    1.3546 H         1 UNK         0.0000 
     48 C48         2.8580   -2.1069    1.3587 C.ar      1 UNK         0.0000 
     49 C49         3.2060   -3.2165    0.4237 C.2       1 UNK         0.0000 
     50 O50         4.2841   -3.7774    0.4587 O.2       1 UNK         0.0000 
     51 C51         2.1881   -3.5727   -0.6728 C.3       1 UNK         0.0000 
     52 H52         2.6435   -4.3298   -1.3133 H         1 UNK         0.0000 
     53 H53         1.2699   -3.9779   -0.2394 H         1 UNK         0.0000 
     54 N54         1.8350   -2.3926   -1.4425 N.am      1 UNK         0.0000 
     55 H55         2.5829   -1.8978   -1.9127 H         1 UNK         0.0000 
     56 C56         0.6367   -1.7768   -1.3492 C.2       1 UNK         0.0000 
     57 O57        -0.3196   -2.2482   -0.7416 O.2       1 UNK         0.0000 
     58 C58         0.5129   -0.4067   -2.0583 C.3       1 UNK         0.0000 
     59 H59         0.1691   -0.6052   -3.0840 H         1 UNK         0.0000 
     60 C60         1.8322    0.3391   -2.1299 C.ar      1 UNK         0.0000 
     61 C61         2.3786    0.6968   -3.3621 C.ar      1 UNK         0.0000 
     62 H62         1.8259    0.4879   -4.2739 H         1 UNK         0.0000 
     63 C63         3.6173    1.3362   -3.4253 C.ar      1 UNK         0.0000 
     64 H64         4.0307    1.6172   -4.3886 H         1 UNK         0.0000 
     65 C65         4.3194    1.6146   -2.2540 C.ar      1 UNK         0.0000 
     66 H66         5.2852    2.1074   -2.3017 H         1 UNK         0.0000 
     67 C67         3.7781    1.2544   -1.0182 C.ar      1 UNK         0.0000 
     68 H68         4.3270    1.4561   -0.1021 H         1 UNK         0.0000 
     69 C69         2.5395    0.6214   -0.9578 C.ar      1 UNK         0.0000 
     70 H70         2.1182    0.3323    0.0031 H         1 UNK         0.0000 
@<TRIPOS>BOND
     1    1    5 1    
     2    1    2 1    
     3    1    3 1    
     4    1    4 1    
     5    5   14 1    
     6    5    6 1    
     7    5   10 1    
     8    6    8 1    
     9    6    9 1    
    10    6    7 1    
    11   10   11 1    
    12   10   12 1    
    13   10   13 1    
    14   14   15 1    
    15   15   17 am   BACKBONE|DICT|INTERRES
    16   15   16 2    
    17   17   18 1    
    18   17   19 1    
    19   19   24 1    
    20   19   25 1    
    21   19   20 1    
    22   20   21 am   BACKBONE|DICT|INTERRES
    23   20   23 2    
    24   21   22 1    
    25   21   58 1    
    26   25   26 1    
    27   25   28 1    
    28   25   27 1    
    29   28   29 ar   
    30   28   33 ar   
    31   29   32 1    
    32   29   30 ar   
    33   30   31 1    
    34   30   37 ar   
    35   33   35 ar   
    36   33   34 1    
    37   35   37 ar   
    38   35   36 1    
    39   37   38 1    
    40   38   39 1    
    41   39   40 ar   
    42   39   44 ar   
    43   40   43 1    
    44   40   41 ar   
    45   41   42 1    
    46   41   48 ar   
    47   44   45 1    
    48   44   46 ar   
    49   46   47 1    
    50   46   48 ar   
    51   48   49 1    
    52   49   50 2    
    53   49   51 1    
    54   51   53 1    
    55   51   52 1    
    56   51   54 1    
    57   54   56 am   BACKBONE|DICT|INTERRES
    58   54   55 1    
    59   56   57 2    
    60   56   58 1    
    61   58   59 1    
    62   58   60 1    
    63   60   69 ar   
    64   60   61 ar   
    65   61   62 1    
    66   61   63 ar   
    67   63   65 ar   
    68   63   64 1    
    69   65   67 ar   
    70   65   66 1    
    71   67   69 ar   
    72   67   68 1    
    73   69   70 1    
@<TRIPOS>SUBSTRUCTURE
     1 UNK         1 GROUP             0       ****    0 ROOT    
@<TRIPOS>MOLECULE
Cpd2-4000
70   73    1
SMALL
USER_CHARGES


@<TRIPOS>ATOM
      1 C1         -6.4476   -1.1560   -0.2012 C.3       1 UNK         0.0000 
      2 H2         -6.3647   -0.7353   -1.2037 H         1 UNK         0.0000 
      3 H3         -7.1799   -1.9686   -0.2189 H         1 UNK         0.0000 
      4 H4         -6.8084   -0.3843    0.4857 H         1 UNK         0.0000 
      5 C5         -5.1086   -1.7040    0.2828 C.3       1 UNK         0.0000 
      6 C6         -5.2483   -2.3069    1.6759 C.3       1 UNK         0.0000 
      7 H7         -5.9445   -3.1491    1.6452 H         1 UNK         0.0000 
      8 H8         -4.2799   -2.6660    2.0356 H         1 UNK         0.0000 
      9 H9         -5.6314   -1.5614    2.3782 H         1 UNK         0.0000 
     10 C10        -4.5102   -2.7213   -0.6842 C.3       1 UNK         0.0000 
     11 H11        -4.4339   -2.3148   -1.6932 H         1 UNK         0.0000 
     12 H12        -3.5156   -3.0247   -0.3439 H         1 UNK         0.0000 
     13 H13        -5.1512   -3.6076   -0.7087 H         1 UNK         0.0000 
     14 O14        -4.1672   -0.6052    0.5023 O.3       1 UNK         0.0000 
     15 C15        -3.7589    0.1641   -0.5190 C.2       1 UNK         0.0000 
     16 O16        -4.1348    0.0855   -1.6755 O.2       1 UNK         0.0000 
     17 N17        -2.8354    1.0686   -0.0827 N.am      1 UNK         0.0000 
     18 H18        -2.5704    1.0486    0.8934 H         1 UNK         0.0000 
     19 C19        -2.2426    2.0329   -0.9824 C.3       1 UNK         0.0000 
     20 C20        -1.0290    1.4872   -1.7585 C.2       1 UNK         0.0000 
     21 N21        -0.5240    0.3087   -1.3347 N.am      1 UNK         0.0000 
     22 H22        -1.0423   -0.2345   -0.6534 H         1 UNK         0.0000 
     23 O23        -0.5654    2.1266   -2.6974 O.2       1 UNK         0.0000 
     24 H24        -2.9829    2.2714   -1.7516 H         1 UNK         0.0000 
     25 C25        -1.8769    3.3368   -0.2345 C.3       1 UNK         0.0000 
     26 H26        -2.7994    3.7536    0.1804 H         1 UNK         0.0000 
     27 H27        -1.4853    4.0388   -0.9751 H         1 UNK         0.0000 
     28 C28        -0.8585    3.0796    0.8480 C.ar      1 UNK         0.0000 
     29 C29        -1.2457    2.7219    2.1450 C.ar      1 UNK         0.0000 
     30 C30        -0.3213    2.2100    3.0596 C.ar      1 UNK         0.0000 
     31 H31        -0.6298    1.8571    4.0384 H         1 UNK         0.0000 
     32 H32        -2.2914    2.7991    2.4350 H         1 UNK         0.0000 
     33 C33         0.5043    3.0571    0.5269 C.ar      1 UNK         0.0000 
     34 H34         0.8301    3.3646   -0.4644 H         1 UNK         0.0000 
     35 C35         1.4363    2.5777    1.4375 C.ar      1 UNK         0.0000 
     36 H36         2.4882    2.5115    1.1783 H         1 UNK         0.0000 
     37 C37         1.0035    2.0844    2.6651 C.ar      1 UNK         0.0000 
     38 O38         1.9088    1.3670    3.4480 O.3       1 UNK         0.0000 
     39 C39         2.2281    0.1668    2.8335 C.ar      1 UNK         0.0000 
     40 C40         3.5644   -0.1286    2.5715 C.ar      1 UNK         0.0000 
     41 C41         3.8739   -1.2727    1.8381 C.ar      1 UNK         0.0000 
     42 H42         4.9051   -1.4957    1.5817 H         1 UNK         0.0000 
     43 H43         4.3363    0.5604    2.8981 H         1 UNK         0.0000 
     44 C44         1.2107   -0.7072    2.4416 C.ar      1 UNK         0.0000 
     45 H45         0.1774   -0.4746    2.6773 H         1 UNK         0.0000 
     46 C46         1.5269   -1.8328    1.6953 C.ar      1 UNK         0.0000 
     47 H47         0.7249   -2.4787    1.3539 H         1 UNK         0.0000 
     48 C48         2.8580   -2.1070    1.3588 C.ar      1 UNK         0.0000 
     49 C49         3.2060   -3.2167    0.4238 C.2       1 UNK         0.0000 
     50 O50         4.2840   -3.7778    0.4591 O.2       1 UNK         0.0000 
     51 C51         2.1884   -3.5725   -0.6731 C.3       1 UNK         0.0000 
     52 H52         2.6442   -4.3294   -1.3137 H         1 UNK         0.0000 
     53 H53         1.2701   -3.9781   -0.2402 H         1 UNK         0.0000 
     54 N54         1.8355   -2.3923   -1.4425 N.am      1 UNK         0.0000 
     55 H55         2.5834   -1.8971   -1.9122 H         1 UNK         0.0000 
     56 C56         0.6370   -1.7768   -1.3494 C.2       1 UNK         0.0000 
     57 O57        -0.3195   -2.2484   -0.7423 O.2       1 UNK         0.0000 
     58 C58         0.5129   -0.4065   -2.0582 C.3       1 UNK         0.0000 
     59 H59         0.1690   -0.6048   -3.0839 H         1 UNK         0.0000 
     60 C60         1.8323    0.3393   -2.1302 C.ar      1 UNK         0.0000 
     61 C61         2.3784    0.6969   -3.3625 C.ar      1 UNK         0.0000 
     62 H62         1.8255    0.4879   -4.2743 H         1 UNK         0.0000 
     63 C63         3.6171    1.3364   -3.4261 C.ar      1 UNK         0.0000 
     64 H64         4.0302    1.6174   -4.3895 H         1 UNK         0.0000 
     65 C65         4.3195    1.6147   -2.2550 C.ar      1 UNK         0.0000 
     66 H66         5.2852    2.1077   -2.3029 H         1 UNK         0.0000 
     67 C67         3.7785    1.2546   -1.0190 C.ar      1 UNK         0.0000 
     68 H68         4.3277    1.4564   -0.1031 H         1 UNK         0.0000 
     69 C69         2.5400    0.6216   -0.9583 C.ar      1 UNK         0.0000 
     70 H70         2.1189    0.3324    0.0027 H         1 UNK         0.0000 
@<TRIPOS>BOND
     1    1    3 1    
     2    1    2 1    
     3    1    4 1    
     4    1    5 1    
     5    5   10 1    
     6    5    6 1    
     7    5   14 1    
     8    6    7 1    
     9    6    8 1    
    10    6    9 1    
    11   10   13 1    
    12   10   11 1    
    13   10   12 1    
    14   14   15 1    
    15   15   16 2    
    16   15   17 am   BACKBONE|DICT|INTERRES
    17   17   19 1    
    18   17   18 1    
    19   19   24 1    
    20   19   20 1    
    21   19   25 1    
    22   20   23 2    
    23   20   21 am   BACKBONE|DICT|INTERRES
    24   21   58 1    
    25   21   22 1    
    26   25   27 1    
    27   25   26 1    
    28   25   28 1    
    29   28   33 ar   
    30   28   29 ar   
    31   29   30 ar   
    32   29   32 1    
    33   30   37 ar   
    34   30   31 1    
    35   33   34 1    
    36   33   35 ar   
    37   35   36 1    
    38   35   37 ar   
    39   37   38 1    
    40   38   39 1    
    41   39   40 ar   
    42   39   44 ar   
    43   40   41 ar   
    44   40   43 1    
    45   41   42 1    
    46   41   48 ar   
    47   44   46 ar   
    48   44   45 1    
    49   46   47 1    
    50   46   48 ar   
    51   48   49 1    
    52   49   51 1    
    53   49   50 2    
    54   51   52 1    
    55   51   54 1    
    56   51   53 1    
    57   54   55 1    
    58   54   56 am   BACKBONE|DICT|INTERRES
    59   56   58 1    
    60   56   57 2    
    61   58   60 1    
    62   58   59 1    
    63   60   61 ar   
    64   60   69 ar   
    65   61   63 ar   
    66   61   62 1    
    67   63   64 1    
    68   63   65 ar   
    69   65   66 1    
    70   65   67 ar   
    71   67   68 1    
    72   67   69 ar   
    73   69   70 1    
@<TRIPOS>SUBSTRUCTURE
     1 UNK         1 GROUP             0       ****    0 ROOT    
@<TRIPOS>MOLECULE
Cpd2-4500
70   73    1
SMALL
USER_CHARGES


@<TRIPOS>ATOM
      1 C1         -6.4488   -1.1550   -0.2053 C.3       1 UNK         0.0000 
      2 H2         -6.3652   -0.7340   -1.2076 H         1 UNK         0.0000 
      3 H3         -7.1811   -1.9674   -0.2235 H         1 UNK         0.0000 
      4 H4         -6.8100   -0.3834    0.4815 H         1 UNK         0.0000 
      5 C5         -5.1102   -1.7032    0.2796 C.3       1 UNK         0.0000 
      6 C6         -5.2507   -2.3062    1.6725 C.3       1 UNK         0.0000 
      7 H7         -5.9472   -3.1483    1.6412 H         1 UNK         0.0000 
      8 H8         -4.2827   -2.6657    2.0326 H         1 UNK         0.0000 
      9 H9         -5.6342   -1.5608    2.3748 H         1 UNK         0.0000 
     10 C10        -4.5112   -2.7203   -0.6872 C.3       1 UNK         0.0000 
     11 H11        -5.1520   -3.6068   -0.7119 H         1 UNK         0.0000 
     12 H12        -4.4345   -2.3141   -1.6962 H         1 UNK         0.0000 
     13 H13        -3.5168   -3.0235   -0.3464 H         1 UNK         0.0000 
     14 O14        -4.1686   -0.6045    0.4999 O.3       1 UNK         0.0000 
     15 C15        -3.7596    0.1649   -0.5210 C.2       1 UNK         0.0000 
     16 O16        -4.1347    0.0866   -1.6778 O.2       1 UNK         0.0000 
     17 N17        -2.8361    1.0691   -0.0839 N.am      1 UNK         0.0000 
     18 H18        -2.5720    1.0489    0.8924 H         1 UNK         0.0000 
     19 C19        -2.2426    2.0334   -0.9832 C.3       1 UNK         0.0000 
     20 C20        -1.0287    1.4874   -1.7588 C.2       1 UNK         0.0000 
     21 N21        -0.5243    0.3088   -1.3349 N.am      1 UNK         0.0000 
     22 H22        -1.0428   -0.2344   -0.6538 H         1 UNK         0.0000 
     23 O23        -0.5647    2.1268   -2.6974 O.2       1 UNK         0.0000 
     24 H24        -2.9823    2.2724   -1.7526 H         1 UNK         0.0000 
     25 C25        -1.8768    3.3369   -0.2346 C.3       1 UNK         0.0000 
     26 H26        -2.7992    3.7538    0.1801 H         1 UNK         0.0000 
     27 H27        -1.4850    4.0391   -0.9749 H         1 UNK         0.0000 
     28 C28        -0.8585    3.0793    0.8478 C.ar      1 UNK         0.0000 
     29 C29        -1.2458    2.7210    2.1445 C.ar      1 UNK         0.0000 
     30 C30        -0.3215    2.2092    3.0593 C.ar      1 UNK         0.0000 
     31 H31        -0.6302    1.8559    4.0379 H         1 UNK         0.0000 
     32 H32        -2.2916    2.7978    2.4345 H         1 UNK         0.0000 
     33 C33         0.5044    3.0573    0.5271 C.ar      1 UNK         0.0000 
     34 H34         0.8304    3.3651   -0.4641 H         1 UNK         0.0000 
     35 C35         1.4363    2.5780    1.4378 C.ar      1 UNK         0.0000 
     36 H36         2.4884    2.5122    1.1788 H         1 UNK         0.0000 
     37 C37         1.0034    2.0842    2.6650 C.ar      1 UNK         0.0000 
     38 O38         1.9088    1.3670    3.4481 O.3       1 UNK         0.0000 
     39 C39         2.2282    0.1668    2.8337 C.ar      1 UNK         0.0000 
     40 C40         3.5644   -0.1283    2.5711 C.ar      1 UNK         0.0000 
     41 C41         3.8739   -1.2724    1.8376 C.ar      1 UNK         0.0000 
     42 H42         4.9052   -1.4951    1.5809 H         1 UNK         0.0000 
     43 H43         4.3363    0.5609    2.8975 H         1 UNK         0.0000 
     44 C44         1.2108   -0.7074    2.4422 C.ar      1 UNK         0.0000 
     45 H45         0.1777   -0.4752    2.6786 H         1 UNK         0.0000 
     46 C46         1.5270   -1.8330    1.6958 C.ar      1 UNK         0.0000 
     47 H47         0.7251   -2.4791    1.3548 H         1 UNK         0.0000 
     48 C48         2.8581   -2.1069    1.3588 C.ar      1 UNK         0.0000 
     49 C49         3.2060   -3.2165    0.4236 C.2       1 UNK         0.0000 
     50 O50         4.2842   -3.7772    0.4585 O.2       1 UNK         0.0000 
     51 C51         2.1880   -3.5727   -0.6728 C.3       1 UNK         0.0000 
     52 H52         2.6435   -4.3298   -1.3132 H         1 UNK         0.0000 
     53 H53         1.2698   -3.9780   -0.2395 H         1 UNK         0.0000 
     54 N54         1.8350   -2.3926   -1.4425 N.am      1 UNK         0.0000 
     55 H55         2.5829   -1.8978   -1.9126 H         1 UNK         0.0000 
     56 C56         0.6368   -1.7767   -1.3489 C.2       1 UNK         0.0000 
     57 O57        -0.3196   -2.2480   -0.7413 O.2       1 UNK         0.0000 
     58 C58         0.5129   -0.4066   -2.0580 C.3       1 UNK         0.0000 
     59 H59         0.1691   -0.6050   -3.0837 H         1 UNK         0.0000 
     60 C60         1.8323    0.3392   -2.1297 C.ar      1 UNK         0.0000 
     61 C61         2.3787    0.6967   -3.3618 C.ar      1 UNK         0.0000 
     62 H62         1.8261    0.4877   -4.2738 H         1 UNK         0.0000 
     63 C63         3.6175    1.3361   -3.4251 C.ar      1 UNK         0.0000 
     64 H64         4.0309    1.6170   -4.3883 H         1 UNK         0.0000 
     65 C65         4.3195    1.6144   -2.2537 C.ar      1 UNK         0.0000 
     66 H66         5.2854    2.1073   -2.3013 H         1 UNK         0.0000 
     67 C67         3.7782    1.2544   -1.0179 C.ar      1 UNK         0.0000 
     68 H68         4.3271    1.4560   -0.1018 H         1 UNK         0.0000 
     69 C69         2.5396    0.6214   -0.9576 C.ar      1 UNK         0.0000 
     70 H70         2.1182    0.3324    0.0033 H         1 UNK         0.0000 
@<TRIPOS>BOND
     1    1    3 1    
     2    1    2 1    
     3    1    4 1    
     4    1    5 1    
     5    5   10 1    
     6    5    6 1    
     7    5   14 1    
     8    6    7 1    
     9    6    8 1    
    10    6    9 1    
    11   10   11 1    
    12   10   12 1    
    13   10   13 1    
    14   14   15 1    
    15   15   16 2    
    16   15   17 am   BACKBONE|DICT|INTERRES
    17   17   19 1    
    18   17   18 1    
    19   19   24 1    
    20   19   20 1    
    21   19   25 1    
    22   20   23 2    
    23   20   21 am   BACKBONE|DICT|INTERRES
    24   21   58 1    
    25   21   22 1    
    26   25   27 1    
    27   25   26 1    
    28   25   28 1    
    29   28   33 ar   
    30   28   29 ar   
    31   29   30 ar   
    32   29   32 1    
    33   30   37 ar   
    34   30   31 1    
    35   33   34 1    
    36   33   35 ar   
    37   35   36 1    
    38   35   37 ar   
    39   37   38 1    
    40   38   39 1    
    41   39   40 ar   
    42   39   44 ar   
    43   40   41 ar   
    44   40   43 1    
    45   41   42 1    
    46   41   48 ar   
    47   44   46 ar   
    48   44   45 1    
    49   46   47 1    
    50   46   48 ar   
    51   48   49 1    
    52   49   51 1    
    53   49   50 2    
    54   51   52 1    
    55   51   54 1    
    56   51   53 1    
    57   54   55 1    
    58   54   56 am   BACKBONE|DICT|INTERRES
    59   56   58 1    
    60   56   57 2    
    61   58   60 1    
    62   58   59 1    
    63   60   61 ar   
    64   60   69 ar   
    65   61   63 ar   
    66   61   62 1    
    67   63   64 1    
    68   63   65 ar   
    69   65   66 1    
    70   65   67 ar   
    71   67   68 1    
    72   67   69 ar   
    73   69   70 1    
@<TRIPOS>SUBSTRUCTURE
     1 UNK         1 GROUP             0       ****    0 ROOT    
@<TRIPOS>MOLECULE
Cpd2-5000
70   73    1
SMALL
USER_CHARGES


@<TRIPOS>ATOM
      1 C1         -6.4480   -1.1557   -0.2080 C.3       1 UNK         0.0000 
      2 H2         -6.3637   -0.7358   -1.2107 H         1 UNK         0.0000 
      3 H3         -7.1804   -1.9681   -0.2259 H         1 UNK         0.0000 
      4 H4         -6.8095   -0.3833    0.4778 H         1 UNK         0.0000 
      5 C5         -5.1098   -1.7035    0.2784 C.3       1 UNK         0.0000 
      6 C6         -5.2516   -2.3062    1.6713 C.3       1 UNK         0.0000 
      7 H7         -4.2838   -2.6648    2.0328 H         1 UNK         0.0000 
      8 H8         -5.6363   -1.5607    2.3729 H         1 UNK         0.0000 
      9 H9         -5.9475   -3.1485    1.6396 H         1 UNK         0.0000 
     10 C10        -4.5097   -2.7209   -0.6875 C.3       1 UNK         0.0000 
     11 H11        -4.4313   -2.3146   -1.6964 H         1 UNK         0.0000 
     12 H12        -3.5158   -3.0245   -0.3452 H         1 UNK         0.0000 
     13 H13        -5.1508   -3.6071   -0.7131 H         1 UNK         0.0000 
     14 O14        -4.1685   -0.6046    0.4992 O.3       1 UNK         0.0000 
     15 C15        -3.7590    0.1645   -0.5215 C.2       1 UNK         0.0000 
     16 O16        -4.1331    0.0858   -1.6787 O.2       1 UNK         0.0000 
     17 N17        -2.8363    1.0694   -0.0842 N.am      1 UNK         0.0000 
     18 H18        -2.5728    1.0497    0.8924 H         1 UNK         0.0000 
     19 C19        -2.2425    2.0336   -0.9834 C.3       1 UNK         0.0000 
     20 C20        -1.0289    1.4874   -1.7591 C.2       1 UNK         0.0000 
     21 N21        -0.5243    0.3090   -1.3349 N.am      1 UNK         0.0000 
     22 H22        -1.0426   -0.2340   -0.6534 H         1 UNK         0.0000 
     23 O23        -0.5650    2.1266   -2.6980 O.2       1 UNK         0.0000 
     24 H24        -2.9824    2.2729   -1.7528 H         1 UNK         0.0000 
     25 C25        -1.8766    3.3371   -0.2347 C.3       1 UNK         0.0000 
     26 H26        -2.7989    3.7540    0.1801 H         1 UNK         0.0000 
     27 H27        -1.4847    4.0392   -0.9749 H         1 UNK         0.0000 
     28 C28        -0.8583    3.0792    0.8477 C.ar      1 UNK         0.0000 
     29 C29        -1.2457    2.7210    2.1444 C.ar      1 UNK         0.0000 
     30 C30        -0.3216    2.2091    3.0592 C.ar      1 UNK         0.0000 
     31 H31        -0.6303    1.8559    4.0379 H         1 UNK         0.0000 
     32 H32        -2.2916    2.7980    2.4343 H         1 UNK         0.0000 
     33 C33         0.5045    3.0570    0.5270 C.ar      1 UNK         0.0000 
     34 H34         0.8307    3.3649   -0.4640 H         1 UNK         0.0000 
     35 C35         1.4364    2.5777    1.4379 C.ar      1 UNK         0.0000 
     36 H36         2.4884    2.5118    1.1788 H         1 UNK         0.0000 
     37 C37         1.0034    2.0841    2.6652 C.ar      1 UNK         0.0000 
     38 O38         1.9086    1.3668    3.4483 O.3       1 UNK         0.0000 
     39 C39         2.2282    0.1666    2.8339 C.ar      1 UNK         0.0000 
     40 C40         3.5644   -0.1282    2.5710 C.ar      1 UNK         0.0000 
     41 C41         3.8739   -1.2721    1.8374 C.ar      1 UNK         0.0000 
     42 H42         4.9052   -1.4948    1.5804 H         1 UNK         0.0000 
     43 H43         4.3362    0.5611    2.8972 H         1 UNK         0.0000 
     44 C44         1.2109   -0.7079    2.4428 C.ar      1 UNK         0.0000 
     45 H45         0.1777   -0.4758    2.6795 H         1 UNK         0.0000 
     46 C46         1.5271   -1.8333    1.6963 C.ar      1 UNK         0.0000 
     47 H47         0.7252   -2.4796    1.3554 H         1 UNK         0.0000 
     48 C48         2.8580   -2.1069    1.3588 C.ar      1 UNK         0.0000 
     49 C49         3.2060   -3.2164    0.4235 C.2       1 UNK         0.0000 
     50 O50         4.2843   -3.7770    0.4583 O.2       1 UNK         0.0000 
     51 C51         2.1880   -3.5726   -0.6728 C.3       1 UNK         0.0000 
     52 H52         2.6436   -4.3298   -1.3133 H         1 UNK         0.0000 
     53 H53         1.2699   -3.9780   -0.2394 H         1 UNK         0.0000 
     54 N54         1.8349   -2.3926   -1.4426 N.am      1 UNK         0.0000 
     55 H55         2.5827   -1.8979   -1.9130 H         1 UNK         0.0000 
     56 C56         0.6368   -1.7766   -1.3488 C.2       1 UNK         0.0000 
     57 O57        -0.3195   -2.2476   -0.7408 O.2       1 UNK         0.0000 
     58 C58         0.5128   -0.4065   -2.0579 C.3       1 UNK         0.0000 
     59 H59         0.1691   -0.6049   -3.0837 H         1 UNK         0.0000 
     60 C60         1.8322    0.3393   -2.1296 C.ar      1 UNK         0.0000 
     61 C61         2.3784    0.6973   -3.3617 C.ar      1 UNK         0.0000 
     62 H62         1.8256    0.4886   -4.2736 H         1 UNK         0.0000 
     63 C63         3.6172    1.3368   -3.4250 C.ar      1 UNK         0.0000 
     64 H64         4.0305    1.6181   -4.3882 H         1 UNK         0.0000 
     65 C65         4.3194    1.6147   -2.2537 C.ar      1 UNK         0.0000 
     66 H66         5.2853    2.1076   -2.3013 H         1 UNK         0.0000 
     67 C67         3.7782    1.2542   -1.0179 C.ar      1 UNK         0.0000 
     68 H68         4.3273    1.4556   -0.1018 H         1 UNK         0.0000 
     69 C69         2.5397    0.6214   -0.9575 C.ar      1 UNK         0.0000 
     70 H70         2.1184    0.3320    0.0033 H         1 UNK         0.0000 
@<TRIPOS>BOND
     1    1    5 1    
     2    1    4 1    
     3    1    2 1    
     4    1    3 1    
     5    5   14 1    
     6    5    6 1    
     7    5   10 1    
     8    6    7 1    
     9    6    8 1    
    10    6    9 1    
    11   10   12 1    
    12   10   11 1    
    13   10   13 1    
    14   14   15 1    
    15   15   17 am   BACKBONE|DICT|INTERRES
    16   15   16 2    
    17   17   18 1    
    18   17   19 1    
    19   19   24 1    
    20   19   25 1    
    21   19   20 1    
    22   20   21 am   BACKBONE|DICT|INTERRES
    23   20   23 2    
    24   21   22 1    
    25   21   58 1    
    26   25   26 1    
    27   25   28 1    
    28   25   27 1    
    29   28   29 ar   
    30   28   33 ar   
    31   29   32 1    
    32   29   30 ar   
    33   30   31 1    
    34   30   37 ar   
    35   33   35 ar   
    36   33   34 1    
    37   35   37 ar   
    38   35   36 1    
    39   37   38 1    
    40   38   39 1    
    41   39   40 ar   
    42   39   44 ar   
    43   40   43 1    
    44   40   41 ar   
    45   41   42 1    
    46   41   48 ar   
    47   44   45 1    
    48   44   46 ar   
    49   46   47 1    
    50   46   48 ar   
    51   48   49 1    
    52   49   50 2    
    53   49   51 1    
    54   51   53 1    
    55   51   52 1    
    56   51   54 1    
    57   54   56 am   BACKBONE|DICT|INTERRES
    58   54   55 1    
    59   56   57 2    
    60   56   58 1    
    61   58   59 1    
    62   58   60 1    
    63   60   69 ar   
    64   60   61 ar   
    65   61   62 1    
    66   61   63 ar   
    67   63   65 ar   
    68   63   64 1    
    69   65   67 ar   
    70   65   66 1    
    71   67   69 ar   
    72   67   68 1    
    73   69   70 1    
@<TRIPOS>SUBSTRUCTURE
     1 UNK         1 GROUP             0       ****    0 ROOT    
