@<TRIPOS>MOLECULE
Cpd2-1
70   73    1
SMALL
USER_CHARGES


@<TRIPOS>ATOM
      1 N1         -2.8742   -2.9883  -12.0821 N.am      1 UNK         0.0000 
      2 O2         -3.7621   -6.2685  -12.3062 O.2       1 UNK         0.0000 
      3 C3         -0.6773   -2.8954  -16.4248 C.ar      1 UNK         0.0000 
      4 N4          0.0780   -0.8010  -11.8651 N.am      1 UNK         0.0000 
      5 O5          1.0402    0.5013  -13.4581 O.2       1 UNK         0.0000 
      6 C6         -0.1590   -3.5592  -15.3155 C.ar      1 UNK         0.0000 
      7 N7          2.1331   -0.2152  -10.0157 N.am      1 UNK         0.0000 
      8 O8         -1.8010   -2.0715  -10.3211 O.2       1 UNK         0.0000 
      9 C9         -1.3431   -1.6807  -16.2763 C.ar      1 UNK         0.0000 
     10 O10         1.0680    1.7081   -9.2640 O.2       1 UNK         0.0000 
     11 C11        -0.3082   -3.0017  -14.0485 C.ar      1 UNK         0.0000 
     12 O12         2.6351   -5.8457  -11.8573 O.3       1 UNK         0.0000 
     13 C13        -1.4977   -1.1283  -15.0070 C.ar      1 UNK         0.0000 
     14 C14         3.1314   -2.4924  -13.2083 C.ar      1 UNK         0.0000 
     15 C15         4.0305   -2.5892  -10.9615 C.ar      1 UNK         0.0000 
     16 C16        -0.7604   -5.1229  -10.6556 C.ar      1 UNK         0.0000 
     17 C17        -0.8851   -6.4621  -12.6665 C.ar      1 UNK         0.0000 
     18 C18         2.8969   -3.8615  -13.1701 C.ar      1 UNK         0.0000 
     19 C19         3.7799   -3.9598  -10.9216 C.ar      1 UNK         0.0000 
     20 C20         0.6250   -5.2307  -10.6764 C.ar      1 UNK         0.0000 
     21 C21         0.5061   -6.5639  -12.6840 C.ar      1 UNK         0.0000 
     22 C22         3.6276   -0.3181  -12.0291 C.3       1 UNK         0.0000 
     23 C23        -3.5673   -4.0792  -11.3585 C.3       1 UNK         0.0000 
     24 C24         3.6332   -1.8453  -12.0777 C.ar      1 UNK         0.0000 
     25 C25        -1.5228   -5.6837  -11.6883 C.ar      1 UNK         0.0000 
     26 C26        -0.9834   -1.7854  -13.8837 C.ar      1 UNK         0.0000 
     27 C27         3.1460   -4.5768  -11.9991 C.ar      1 UNK         0.0000 
     28 C28         1.2646   -5.9034  -11.7203 C.ar      1 UNK         0.0000 
     29 C29        -3.0076   -5.4747  -11.7412 C.2       1 UNK         0.0000 
     30 C30         1.0600   -0.0137  -12.3408 C.2       1 UNK         0.0000 
     31 C31        -1.9994   -2.1253  -11.5369 C.2       1 UNK         0.0000 
     32 C32         1.5130    0.5797   -9.0743 C.2       1 UNK         0.0000 
     33 C33         2.2974    0.2257  -11.4213 C.3       1 UNK         0.0000 
     34 C34        -1.1992   -1.1942  -12.4967 C.3       1 UNK         0.0000 
     35 H35         2.4149    1.3128  -11.4157 H         1 UNK         0.0000 
     36 H36        -1.7963   -0.2836  -12.5708 H         1 UNK         0.0000 
     37 H37        -0.5586   -3.3238  -17.4101 H         1 UNK         0.0000 
     38 H38         0.3551   -4.5016  -15.4362 H         1 UNK         0.0000 
     39 H39        -1.7354   -1.1665  -17.1422 H         1 UNK         0.0000 
     40 H40         0.0903   -3.5171  -13.1859 H         1 UNK         0.0000 
     41 H41        -2.0081   -0.1816  -14.9009 H         1 UNK         0.0000 
     42 H42         2.8288   -1.9266  -14.0796 H         1 UNK         0.0000 
     43 H43         4.4539   -2.1001  -10.0959 H         1 UNK         0.0000 
     44 H44        -1.2177   -4.5529   -9.8580 H         1 UNK         0.0000 
     45 H45        -1.4560   -6.9427  -13.4505 H         1 UNK         0.0000 
     46 H46         2.4238   -4.3520  -14.0064 H         1 UNK         0.0000 
     47 H47         3.9927   -4.5303  -10.0299 H         1 UNK         0.0000 
     48 H48         1.2115   -4.7393   -9.9154 H         1 UNK         0.0000 
     49 H49         1.0053   -7.1040  -13.4745 H         1 UNK         0.0000 
     50 H50         4.4823    0.0319  -11.4483 H         1 UNK         0.0000 
     51 H51         3.7796    0.0822  -13.0342 H         1 UNK         0.0000 
     52 H52        -4.6357   -4.0451  -11.5761 H         1 UNK         0.0000 
     53 H53        -3.4967   -3.9751  -10.2740 H         1 UNK         0.0000 
     54 H54        -2.9800   -2.9507  -13.0887 H         1 UNK         0.0000 
     55 H55         0.1665   -1.1194  -10.9095 H         1 UNK         0.0000 
     56 H56         2.4041   -1.1463   -9.7484 H         1 UNK         0.0000 
     57 O57         1.4559   -0.1079   -7.9182 O.3       1 UNK         0.0000 
     58 C58         0.8021    0.3486   -6.7280 C.3       1 UNK         0.0000 
     59 C59         1.0145   -0.7974   -5.7263 C.3       1 UNK         0.0000 
     60 H60         0.5806   -1.7286   -6.0921 H         1 UNK         0.0000 
     61 H61         2.0752   -0.9835   -5.5551 H         1 UNK         0.0000 
     62 H62         0.5577   -0.5775   -4.7612 H         1 UNK         0.0000 
     63 C63        -0.7116    0.5464   -6.9547 C.3       1 UNK         0.0000 
     64 H64        -1.2320    0.7559   -6.0203 H         1 UNK         0.0000 
     65 H65        -0.9147    1.3761   -7.6319 H         1 UNK         0.0000 
     66 H66        -1.1634   -0.3430   -7.3955 H         1 UNK         0.0000 
     67 C67         1.4551    1.6316   -6.1724 C.3       1 UNK         0.0000 
     68 H68         2.5316    1.5069   -6.0565 H         1 UNK         0.0000 
     69 H69         1.2992    2.4849   -6.8322 H         1 UNK         0.0000 
     70 H70         1.0445    1.8977   -5.1985 H         1 UNK         0.0000 
@<TRIPOS>BOND
     1    1   23 1    
     2    1   31 am   BACKBONE|DICT|INTERRES
     3    1   54 1    
     4    2   29 2    
     5    3    6 ar   
     6    3    9 ar   
     7    3   37 1    
     8    4   55 1    
     9    4   34 1    
    10    4   30 am   BACKBONE|DICT|INTERRES
    11    5   30 2    
    12    6   38 1    
    13    6   11 ar   
    14    7   56 1    
    15    7   32 am   BACKBONE|DICT|INTERRES
    16    7   33 1    
    17    8   31 2    
    18    9   13 ar   
    19    9   39 1    
    20   10   32 2    
    21   11   40 1    
    22   11   26 ar   
    23   12   28 1    
    24   12   27 1    
    25   13   26 ar   
    26   13   41 1    
    27   14   18 ar   
    28   14   24 ar   
    29   14   42 1    
    30   15   19 ar   
    31   15   24 ar   
    32   15   43 1    
    33   16   25 ar   
    34   16   44 1    
    35   16   20 ar   
    36   17   45 1    
    37   17   25 ar   
    38   17   21 ar   
    39   18   46 1    
    40   18   27 ar   
    41   19   27 ar   
    42   19   47 1    
    43   20   28 ar   
    44   20   48 1    
    45   21   28 ar   
    46   21   49 1    
    47   22   24 1    
    48   22   33 1    
    49   22   50 1    
    50   22   51 1    
    51   23   29 1    
    52   23   53 1    
    53   23   52 1    
    54   25   29 1    
    55   26   34 1    
    56   30   33 1    
    57   31   34 1    
    58   32   57 1    
    59   33   35 1    
    60   34   36 1    
    61   57   58 1    
    62   58   63 1    
    63   58   59 1    
    64   58   67 1    
    65   59   60 1    
    66   59   62 1    
    67   59   61 1    
    68   63   66 1    
    69   63   64 1    
    70   63   65 1    
    71   67   70 1    
    72   67   68 1    
    73   67   69 1    
@<TRIPOS>SUBSTRUCTURE
     1 UNK         1 GROUP             0       ****    0 ROOT    
@<TRIPOS>MOLECULE
Cpd2-2
70   73    1
SMALL
USER_CHARGES


@<TRIPOS>ATOM
      1 N1         -2.8315   -3.0319  -12.1768 N.am      1 UNK         0.0000 
      2 O2         -3.7493   -6.3387  -12.1921 O.2       1 UNK         0.0000 
      3 C3         -0.6549   -2.9732  -16.4340 C.ar      1 UNK         0.0000 
      4 N4          0.0736   -0.8760  -11.8845 N.am      1 UNK         0.0000 
      5 O5          1.0086    0.5493  -13.3630 O.2       1 UNK         0.0000 
      6 C6         -0.0819   -3.5690  -15.3130 C.ar      1 UNK         0.0000 
      7 N7          2.2483    0.0126   -9.8916 N.am      1 UNK         0.0000 
      8 O8         -2.1649   -1.7954  -10.4160 O.2       1 UNK         0.0000 
      9 C9         -1.3856   -1.7930  -16.3138 C.ar      1 UNK         0.0000 
     10 O10         1.0845   -1.9984   -9.6738 O.2       1 UNK         0.0000 
     11 C11        -0.2409   -2.9775  -14.0627 C.ar      1 UNK         0.0000 
     12 O12         2.6578   -5.8594  -11.8834 O.3       1 UNK         0.0000 
     13 C13        -1.5506   -1.2072  -15.0609 C.ar      1 UNK         0.0000 
     14 C14         3.1968   -2.5094  -13.2113 C.ar      1 UNK         0.0000 
     15 C15         4.0611   -2.6228  -10.9523 C.ar      1 UNK         0.0000 
     16 C16        -0.8781   -6.5796  -12.5399 C.ar      1 UNK         0.0000 
     17 C17        -0.7276   -4.9804  -10.7321 C.ar      1 UNK         0.0000 
     18 C18         2.9712   -3.8808  -13.1898 C.ar      1 UNK         0.0000 
     19 C19         3.8207   -3.9947  -10.9291 C.ar      1 UNK         0.0000 
     20 C20         0.5140   -6.6754  -12.5707 C.ar      1 UNK         0.0000 
     21 C21         0.6563   -5.0869  -10.7637 C.ar      1 UNK         0.0000 
     22 C22         3.6417   -0.3472  -11.9899 C.3       1 UNK         0.0000 
     23 C23        -3.5674   -4.0775  -11.4313 C.3       1 UNK         0.0000 
     24 C24         3.6708   -1.8704  -12.0639 C.ar      1 UNK         0.0000 
     25 C25        -1.5058   -5.6830  -11.6608 C.ar      1 UNK         0.0000 
     26 C26        -0.9821   -1.7966  -13.9264 C.ar      1 UNK         0.0000 
     27 C27         3.2006   -4.6028  -12.0192 C.ar      1 UNK         0.0000 
     28 C28         1.2868   -5.8893  -11.7195 C.ar      1 UNK         0.0000 
     29 C29        -2.9939   -5.4908  -11.7131 C.2       1 UNK         0.0000 
     30 C30         1.0551   -0.0584  -12.2925 C.2       1 UNK         0.0000 
     31 C31        -2.1177   -2.0360  -11.6225 C.2       1 UNK         0.0000 
     32 C32         1.6175   -1.0016   -9.1979 C.2       1 UNK         0.0000 
     33 C33         2.3043    0.1683  -11.3723 C.3       1 UNK         0.0000 
     34 C34        -1.2105   -1.1756  -12.5539 C.3       1 UNK         0.0000 
     35 H35         2.3702    1.2559  -11.4332 H         1 UNK         0.0000 
     36 H36        -1.7347   -0.2246  -12.6605 H         1 UNK         0.0000 
     37 H37        -0.5289   -3.4283  -17.4062 H         1 UNK         0.0000 
     38 H38         0.4810   -4.4858  -15.4108 H         1 UNK         0.0000 
     39 H39        -1.8215   -1.3324  -17.1888 H         1 UNK         0.0000 
     40 H40         0.1975   -3.4387  -13.1882 H         1 UNK         0.0000 
     41 H41        -2.1163   -0.2905  -14.9752 H         1 UNK         0.0000 
     42 H42         2.8988   -1.9371  -14.0790 H         1 UNK         0.0000 
     43 H43         4.4405   -2.1362  -10.0661 H         1 UNK         0.0000 
     44 H44        -1.4586   -7.1643  -13.2416 H         1 UNK         0.0000 
     45 H45        -1.1646   -4.2988  -10.0136 H         1 UNK         0.0000 
     46 H46         2.5052   -4.3655  -14.0329 H         1 UNK         0.0000 
     47 H47         4.0022   -4.5644  -10.0308 H         1 UNK         0.0000 
     48 H48         1.0024   -7.3144  -13.2910 H         1 UNK         0.0000 
     49 H49         1.2452   -4.4853  -10.0880 H         1 UNK         0.0000 
     50 H50         4.4991    0.0092  -11.4172 H         1 UNK         0.0000 
     51 H51         3.7749    0.0609  -12.9943 H         1 UNK         0.0000 
     52 H52        -4.6225   -4.0499  -11.7071 H         1 UNK         0.0000 
     53 H53        -3.5410   -3.9212  -10.3510 H         1 UNK         0.0000 
     54 H54        -2.7556   -3.1311  -13.1820 H         1 UNK         0.0000 
     55 H55         0.2307   -1.3666  -10.9989 H         1 UNK         0.0000 
     56 H56         2.6203    0.7564   -9.3258 H         1 UNK         0.0000 
     57 O57         1.6942   -0.7160   -7.8860 O.3       1 UNK         0.0000 
     58 C58         1.1056   -1.5059   -6.8452 C.3       1 UNK         0.0000 
     59 C59         1.7224   -2.9194   -6.7831 C.3       1 UNK         0.0000 
     60 H60         1.4605   -3.5157   -7.6568 H         1 UNK         0.0000 
     61 H61         2.8105   -2.8723   -6.7397 H         1 UNK         0.0000 
     62 H62         1.3780   -3.4655   -5.9050 H         1 UNK         0.0000 
     63 C63        -0.4305   -1.5740   -6.9821 C.3       1 UNK         0.0000 
     64 H64        -0.8874   -2.0636   -6.1224 H         1 UNK         0.0000 
     65 H65        -0.8635   -0.5772   -7.0661 H         1 UNK         0.0000 
     66 H66        -0.7376   -2.1274   -7.8702 H         1 UNK         0.0000 
     67 C67         1.4625   -0.7442   -5.5593 C.3       1 UNK         0.0000 
     68 H68         2.5424   -0.6577   -5.4357 H         1 UNK         0.0000 
     69 H69         1.0595    0.2690   -5.5737 H         1 UNK         0.0000 
     70 H70         1.0678   -1.2434   -4.6741 H         1 UNK         0.0000 
@<TRIPOS>BOND
     1    1   23 1    
     2    1   31 am   BACKBONE|DICT|INTERRES
     3    1   54 1    
     4    2   29 2    
     5    3    6 ar   
     6    3    9 ar   
     7    3   37 1    
     8    4   55 1    
     9    4   34 1    
    10    4   30 am   BACKBONE|DICT|INTERRES
    11    5   30 2    
    12    6   38 1    
    13    6   11 ar   
    14    7   32 am   BACKBONE|DICT|INTERRES
    15    7   33 1    
    16    7   56 1    
    17    8   31 2    
    18    9   13 ar   
    19    9   39 1    
    20   10   32 2    
    21   11   40 1    
    22   11   26 ar   
    23   12   28 1    
    24   12   27 1    
    25   13   26 ar   
    26   13   41 1    
    27   14   18 ar   
    28   14   24 ar   
    29   14   42 1    
    30   15   19 ar   
    31   15   24 ar   
    32   15   43 1    
    33   16   25 ar   
    34   16   44 1    
    35   16   20 ar   
    36   17   45 1    
    37   17   25 ar   
    38   17   21 ar   
    39   18   46 1    
    40   18   27 ar   
    41   19   27 ar   
    42   19   47 1    
    43   20   28 ar   
    44   20   48 1    
    45   21   28 ar   
    46   21   49 1    
    47   22   24 1    
    48   22   33 1    
    49   22   50 1    
    50   22   51 1    
    51   23   29 1    
    52   23   53 1    
    53   23   52 1    
    54   25   29 1    
    55   26   34 1    
    56   30   33 1    
    57   31   34 1    
    58   32   57 1    
    59   33   35 1    
    60   34   36 1    
    61   57   58 1    
    62   58   59 1    
    63   58   63 1    
    64   58   67 1    
    65   59   60 1    
    66   59   62 1    
    67   59   61 1    
    68   63   66 1    
    69   63   64 1    
    70   63   65 1    
    71   67   70 1    
    72   67   68 1    
    73   67   69 1    
@<TRIPOS>SUBSTRUCTURE
     1 UNK         1 GROUP             0       ****    0 ROOT    
@<TRIPOS>MOLECULE
Cpd2-3
70   73    1
SMALL
USER_CHARGES


@<TRIPOS>ATOM
      1 N1         -2.8746   -2.9966  -12.1118 N.am      1 UNK         0.0000 
      2 O2         -3.7577   -6.2868  -12.2850 O.2       1 UNK         0.0000 
      3 C3         -0.6794   -2.9050  -16.4362 C.ar      1 UNK         0.0000 
      4 N4          0.0806   -0.8372  -11.8690 N.am      1 UNK         0.0000 
      5 O5          1.0325    0.5151  -13.4235 O.2       1 UNK         0.0000 
      6 C6         -1.3509   -1.6930  -16.2898 C.ar      1 UNK         0.0000 
      7 N7          2.1422   -0.2896   -9.9992 N.am      1 UNK         0.0000 
      8 O8         -1.8814   -2.0147  -10.3405 O.2       1 UNK         0.0000 
      9 C9         -0.1554   -3.5631  -15.3263 C.ar      1 UNK         0.0000 
     10 O10         1.3501   -0.0675   -7.8635 O.2       1 UNK         0.0000 
     11 C11        -1.5051   -1.1379  -15.0216 C.ar      1 UNK         0.0000 
     12 O12         2.6395   -5.8439  -11.8546 O.3       1 UNK         0.0000 
     13 C13        -0.3047   -3.0030  -14.0605 C.ar      1 UNK         0.0000 
     14 C14         3.1375   -2.4940  -13.2101 C.ar      1 UNK         0.0000 
     15 C15         4.0630   -2.5971  -10.9740 C.ar      1 UNK         0.0000 
     16 C16        -0.7564   -5.0834  -10.6696 C.ar      1 UNK         0.0000 
     17 C17        -0.8824   -6.4827  -12.6390 C.ar      1 UNK         0.0000 
     18 C18         2.9020   -3.8629  -13.1719 C.ar      1 UNK         0.0000 
     19 C19         3.8095   -3.9670  -10.9335 C.ar      1 UNK         0.0000 
     20 C20         0.6293   -5.1890  -10.6902 C.ar      1 UNK         0.0000 
     21 C21         0.5089   -6.5826  -12.6561 C.ar      1 UNK         0.0000 
     22 C22         3.6254   -0.3231  -12.0216 C.3       1 UNK         0.0000 
     23 C23        -3.5749   -4.0784  -11.3815 C.3       1 UNK         0.0000 
     24 C24         3.6491   -1.8499  -12.0823 C.ar      1 UNK         0.0000 
     25 C25        -1.5203   -5.6779  -11.6824 C.ar      1 UNK         0.0000 
     26 C26        -0.9854   -1.7895  -13.8977 C.ar      1 UNK         0.0000 
     27 C27         3.1596   -4.5796  -12.0036 C.ar      1 UNK         0.0000 
     28 C28         1.2685   -5.8931  -11.7142 C.ar      1 UNK         0.0000 
     29 C29        -3.0068   -5.4773  -11.7377 C.2       1 UNK         0.0000 
     30 C30         1.0598   -0.0355  -12.3239 C.2       1 UNK         0.0000 
     31 C31        -2.0302   -2.1081  -11.5601 C.2       1 UNK         0.0000 
     32 C32         1.4226    0.3593   -9.0093 C.2       1 UNK         0.0000 
     33 C33         2.2929    0.1964  -11.3956 C.3       1 UNK         0.0000 
     34 C34        -1.2008   -1.1956  -12.5120 C.3       1 UNK         0.0000 
     35 H35         2.4003    1.2831  -11.3577 H         1 UNK         0.0000 
     36 H36        -1.7758   -0.2712  -12.5904 H         1 UNK         0.0000 
     37 H37        -0.5610   -3.3356  -17.4205 H         1 UNK         0.0000 
     38 H38        -1.7479   -1.1836  -17.1562 H         1 UNK         0.0000 
     39 H39         0.3625   -4.5036  -15.4456 H         1 UNK         0.0000 
     40 H40        -2.0210   -0.1939  -14.9172 H         1 UNK         0.0000 
     41 H41         0.0969   -3.5147  -13.1971 H         1 UNK         0.0000 
     42 H42         2.8240   -1.9264  -14.0761 H         1 UNK         0.0000 
     43 H43         4.4957   -2.1118  -10.1108 H         1 UNK         0.0000 
     44 H44        -1.2131   -4.4913   -9.8875 H         1 UNK         0.0000 
     45 H45        -1.4537   -6.9885  -13.4068 H         1 UNK         0.0000 
     46 H46         2.4182   -4.3511  -14.0033 H         1 UNK         0.0000 
     47 H47         4.0292   -4.5389  -10.0442 H         1 UNK         0.0000 
     48 H48         1.2157   -4.6742   -9.9444 H         1 UNK         0.0000 
     49 H49         1.0072   -7.1463  -13.4306 H         1 UNK         0.0000 
     50 H50         4.4808    0.0311  -11.4442 H         1 UNK         0.0000 
     51 H51         3.7654    0.0883  -13.0241 H         1 UNK         0.0000 
     52 H52        -4.6405   -4.0494  -11.6136 H         1 UNK         0.0000 
     53 H53        -3.5168   -3.9607  -10.2977 H         1 UNK         0.0000 
     54 H54        -2.9451   -2.9885  -13.1222 H         1 UNK         0.0000 
     55 H55         0.1731   -1.1895  -10.9248 H         1 UNK         0.0000 
     56 H56         2.5657   -1.1662   -9.7455 H         1 UNK         0.0000 
     57 O57         0.7926    1.4641   -9.4770 O.3       1 UNK         0.0000 
     58 C58        -0.1771    2.2240   -8.7504 C.3       1 UNK         0.0000 
     59 C59        -0.6089    3.3108   -9.7470 C.3       1 UNK         0.0000 
     60 H60         0.2370    3.9278  -10.0519 H         1 UNK         0.0000 
     61 H61        -1.0263    2.8720  -10.6542 H         1 UNK         0.0000 
     62 H62        -1.3641    3.9713   -9.3206 H         1 UNK         0.0000 
     63 C63         0.4388    2.8906   -7.5035 C.3       1 UNK         0.0000 
     64 H64        -0.2642    3.5762   -7.0306 H         1 UNK         0.0000 
     65 H65         0.7291    2.1560   -6.7526 H         1 UNK         0.0000 
     66 H66         1.3331    3.4572   -7.7622 H         1 UNK         0.0000 
     67 C67        -1.4040    1.3647   -8.3786 C.3       1 UNK         0.0000 
     68 H68        -1.8034    0.8488   -9.2527 H         1 UNK         0.0000 
     69 H69        -1.1547    0.5984   -7.6447 H         1 UNK         0.0000 
     70 H70        -2.2043    1.9713   -7.9554 H         1 UNK         0.0000 
@<TRIPOS>BOND
     1    1   23 1    
     2    1   31 am   BACKBONE|DICT|INTERRES
     3    1   54 1    
     4    2   29 2    
     5    3    6 ar   
     6    3    9 ar   
     7    3   37 1    
     8    4   55 1    
     9    4   34 1    
    10    4   30 am   BACKBONE|DICT|INTERRES
    11    5   30 2    
    12    6   11 ar   
    13    6   38 1    
    14    7   56 1    
    15    7   32 am   BACKBONE|DICT|INTERRES
    16    7   33 1    
    17    8   31 2    
    18    9   13 ar   
    19    9   39 1    
    20   10   32 2    
    21   11   40 1    
    22   11   26 ar   
    23   12   28 1    
    24   12   27 1    
    25   13   26 ar   
    26   13   41 1    
    27   14   18 ar   
    28   14   24 ar   
    29   14   42 1    
    30   15   19 ar   
    31   15   24 ar   
    32   15   43 1    
    33   16   25 ar   
    34   16   44 1    
    35   16   20 ar   
    36   17   45 1    
    37   17   25 ar   
    38   17   21 ar   
    39   18   46 1    
    40   18   27 ar   
    41   19   27 ar   
    42   19   47 1    
    43   20   28 ar   
    44   20   48 1    
    45   21   28 ar   
    46   21   49 1    
    47   22   24 1    
    48   22   33 1    
    49   22   50 1    
    50   22   51 1    
    51   23   53 1    
    52   23   52 1    
    53   23   29 1    
    54   25   29 1    
    55   26   34 1    
    56   30   33 1    
    57   31   34 1    
    58   32   57 1    
    59   33   35 1    
    60   34   36 1    
    61   57   58 1    
    62   58   67 1    
    63   58   59 1    
    64   58   63 1    
    65   59   61 1    
    66   59   62 1    
    67   59   60 1    
    68   63   64 1    
    69   63   65 1    
    70   63   66 1    
    71   67   68 1    
    72   67   69 1    
    73   67   70 1    
@<TRIPOS>SUBSTRUCTURE
     1 UNK         1 GROUP             0       ****    0 ROOT    
@<TRIPOS>MOLECULE
Cpd2-4
70   73    1
SMALL
USER_CHARGES


@<TRIPOS>ATOM
      1 N1         -2.8657   -2.9869  -12.0778 N.am      1 UNK         0.0000 
      2 O2         -3.7643   -6.2617  -12.3134 O.2       1 UNK         0.0000 
      3 C3         -0.6471   -2.9076  -16.4180 C.ar      1 UNK         0.0000 
      4 N4          0.0920   -0.8009  -11.8524 N.am      1 UNK         0.0000 
      5 O5          1.0476    0.4863  -13.4544 O.2       1 UNK         0.0000 
      6 C6         -0.1356   -3.5727  -15.3064 C.ar      1 UNK         0.0000 
      7 N7          2.1265   -0.1726  -10.0141 N.am      1 UNK         0.0000 
      8 O8         -1.7653   -2.0928  -10.3202 O.2       1 UNK         0.0000 
      9 C9         -1.3090   -1.6903  -16.2727 C.ar      1 UNK         0.0000 
     10 O10         3.7559    1.2285   -9.1289 O.2       1 UNK         0.0000 
     11 C11        -0.2875   -3.0142  -14.0402 C.ar      1 UNK         0.0000 
     12 O12         2.6320   -5.8457  -11.8530 O.3       1 UNK         0.0000 
     13 C13        -1.4663   -1.1370  -15.0041 C.ar      1 UNK         0.0000 
     14 C14         3.1313   -2.4998  -13.2233 C.ar      1 UNK         0.0000 
     15 C15         3.9885   -2.5732  -10.9604 C.ar      1 UNK         0.0000 
     16 C16        -0.7642   -5.1426  -10.6449 C.ar      1 UNK         0.0000 
     17 C17        -0.8860   -6.4535  -12.6749 C.ar      1 UNK         0.0000 
     18 C18         2.9039   -3.8703  -13.1777 C.ar      1 UNK         0.0000 
     19 C19         3.7456   -3.9444  -10.9127 C.ar      1 UNK         0.0000 
     20 C20         0.6212   -5.2504  -10.6644 C.ar      1 UNK         0.0000 
     21 C21         0.5051   -6.5554  -12.6910 C.ar      1 UNK         0.0000 
     22 C22         3.6128   -0.3111  -12.0581 C.3       1 UNK         0.0000 
     23 C23        -3.5622   -4.0770  -11.3558 C.3       1 UNK         0.0000 
     24 C24         3.6097   -1.8403  -12.0897 C.ar      1 UNK         0.0000 
     25 C25        -1.5245   -5.6874  -11.6877 C.ar      1 UNK         0.0000 
     26 C26        -0.9584   -1.7953  -13.8784 C.ar      1 UNK         0.0000 
     27 C27         3.1364   -4.5746  -11.9965 C.ar      1 UNK         0.0000 
     28 C28         1.2619   -5.9080  -11.7173 C.ar      1 UNK         0.0000 
     29 C29        -3.0084   -5.4738  -11.7421 C.2       1 UNK         0.0000 
     30 C30         1.0763   -0.0166  -12.3321 C.2       1 UNK         0.0000 
     31 C31        -1.9784   -2.1360  -11.5342 C.2       1 UNK         0.0000 
     32 C32         2.9157    0.3408   -9.0077 C.2       1 UNK         0.0000 
     33 C33         2.3065    0.2742  -11.4167 C.3       1 UNK         0.0000 
     34 C34        -1.1794   -1.2031  -12.4928 C.3       1 UNK         0.0000 
     35 H35         2.3812    1.3648  -11.4122 H         1 UNK         0.0000 
     36 H36        -1.7823   -0.2967  -12.5714 H         1 UNK         0.0000 
     37 H37        -0.5260   -3.3368  -17.4026 H         1 UNK         0.0000 
     38 H38         0.3754   -4.5172  -15.4247 H         1 UNK         0.0000 
     39 H39        -1.6960   -1.1752  -17.1403 H         1 UNK         0.0000 
     40 H40         0.1057   -3.5313  -13.1762 H         1 UNK         0.0000 
     41 H41        -1.9738   -0.1886  -14.9009 H         1 UNK         0.0000 
     42 H42         2.8446   -1.9430  -14.1053 H         1 UNK         0.0000 
     43 H43         4.3894   -2.0720  -10.0909 H         1 UNK         0.0000 
     44 H44        -1.2235   -4.5843   -9.8401 H         1 UNK         0.0000 
     45 H45        -1.4557   -6.9224  -13.4668 H         1 UNK         0.0000 
     46 H46         2.4501   -4.3709  -14.0185 H         1 UNK         0.0000 
     47 H47         3.9446   -4.5043  -10.0113 H         1 UNK         0.0000 
     48 H48         1.2072   -4.7707   -9.8957 H         1 UNK         0.0000 
     49 H49         1.0057   -7.0843  -13.4883 H         1 UNK         0.0000 
     50 H50         4.4911    0.0345  -11.5099 H         1 UNK         0.0000 
     51 H51         3.7472    0.0776  -13.0701 H         1 UNK         0.0000 
     52 H52        -4.6309   -4.0388  -11.5721 H         1 UNK         0.0000 
     53 H53        -3.4907   -3.9753  -10.2713 H         1 UNK         0.0000 
     54 H54        -2.9812   -2.9417  -13.0831 H         1 UNK         0.0000 
     55 H55         0.1561   -1.1148  -10.8956 H         1 UNK         0.0000 
     56 H56         1.6458   -1.0313   -9.8117 H         1 UNK         0.0000 
     57 O57         2.6235   -0.3191   -7.8709 O.3       1 UNK         0.0000 
     58 C58         3.2444   -0.0788   -6.6026 C.3       1 UNK         0.0000 
     59 C59         4.7546   -0.3933   -6.6425 C.3       1 UNK         0.0000 
     60 H60         4.9386   -1.3946   -7.0316 H         1 UNK         0.0000 
     61 H61         5.2972    0.3049   -7.2797 H         1 UNK         0.0000 
     62 H62         5.1993   -0.3362   -5.6490 H         1 UNK         0.0000 
     63 C63         2.5478   -1.0706   -5.6577 C.3       1 UNK         0.0000 
     64 H64         2.9312   -0.9934   -4.6400 H         1 UNK         0.0000 
     65 H65         1.4723   -0.8933   -5.6193 H         1 UNK         0.0000 
     66 H66         2.6905   -2.1003   -5.9868 H         1 UNK         0.0000 
     67 C67         2.9876    1.3584   -6.1027 C.3       1 UNK         0.0000 
     68 H68         3.4921    2.0999   -6.7221 H         1 UNK         0.0000 
     69 H69         1.9239    1.5963   -6.1184 H         1 UNK         0.0000 
     70 H70         3.3433    1.4948   -5.0815 H         1 UNK         0.0000 
@<TRIPOS>BOND
     1    1   23 1    
     2    1   31 am   BACKBONE|DICT|INTERRES
     3    1   54 1    
     4    2   29 2    
     5    3    6 ar   
     6    3    9 ar   
     7    3   37 1    
     8    4   34 1    
     9    4   55 1    
    10    4   30 am   BACKBONE|DICT|INTERRES
    11    5   30 2    
    12    6   38 1    
    13    6   11 ar   
    14    7   56 1    
    15    7   32 am   BACKBONE|DICT|INTERRES
    16    7   33 1    
    17    8   31 2    
    18    9   13 ar   
    19    9   39 1    
    20   10   32 2    
    21   11   40 1    
    22   11   26 ar   
    23   12   28 1    
    24   12   27 1    
    25   13   26 ar   
    26   13   41 1    
    27   14   24 ar   
    28   14   18 ar   
    29   14   42 1    
    30   15   43 1    
    31   15   19 ar   
    32   15   24 ar   
    33   16   25 ar   
    34   16   44 1    
    35   16   20 ar   
    36   17   45 1    
    37   17   25 ar   
    38   17   21 ar   
    39   18   46 1    
    40   18   27 ar   
    41   19   27 ar   
    42   19   47 1    
    43   20   28 ar   
    44   20   48 1    
    45   21   28 ar   
    46   21   49 1    
    47   22   24 1    
    48   22   33 1    
    49   22   50 1    
    50   22   51 1    
    51   23   29 1    
    52   23   52 1    
    53   23   53 1    
    54   25   29 1    
    55   26   34 1    
    56   30   33 1    
    57   31   34 1    
    58   32   57 1    
    59   33   35 1    
    60   34   36 1    
    61   57   58 1    
    62   58   63 1    
    63   58   59 1    
    64   58   67 1    
    65   59   60 1    
    66   59   62 1    
    67   59   61 1    
    68   63   66 1    
    69   63   64 1    
    70   63   65 1    
    71   67   70 1    
    72   67   69 1    
    73   67   68 1    
@<TRIPOS>SUBSTRUCTURE
     1 UNK         1 GROUP             0       ****    0 ROOT    
@<TRIPOS>MOLECULE
Cpd2-5
70   73    1
SMALL
USER_CHARGES


@<TRIPOS>ATOM
      1 N1         -2.2348   -2.8152  -11.8209 N.am      1 UNK         0.0000 
      2 O2         -3.1940   -5.6701   -9.9571 O.2       1 UNK         0.0000 
      3 C3          0.3233   -2.1046  -17.0973 C.ar      1 UNK         0.0000 
      4 N4         -0.1212   -0.9213  -12.1833 N.am      1 UNK         0.0000 
      5 O5          1.1761    0.7085  -13.0459 O.2       1 UNK         0.0000 
      6 C6         -0.6806   -1.1453  -16.9852 C.ar      1 UNK         0.0000 
      7 N7          1.4716   -0.6394   -9.5647 N.am      1 UNK         0.0000 
      8 O8         -3.4079   -1.8774  -13.4962 O.2       1 UNK         0.0000 
      9 C9          0.8494   -2.7151  -15.9613 C.ar      1 UNK         0.0000 
     10 O10         0.0945   -2.4674  -10.0825 O.2       1 UNK         0.0000 
     11 C11        -1.1610   -0.7930  -15.7261 C.ar      1 UNK         0.0000 
     12 O12         2.7327   -5.9838  -12.3203 O.3       1 UNK         0.0000 
     13 C13         0.3665   -2.3609  -14.7039 C.ar      1 UNK         0.0000 
     14 C14         3.4049   -2.4484  -12.8981 C.ar      1 UNK         0.0000 
     15 C15         3.5931   -2.9234  -10.5323 C.ar      1 UNK         0.0000 
     16 C16        -0.8413   -5.3522  -12.7014 C.ar      1 UNK         0.0000 
     17 C17        -0.4129   -6.2398  -10.4916 C.ar      1 UNK         0.0000 
     18 C18         3.2807   -3.8104  -13.1597 C.ar      1 UNK         0.0000 
     19 C19         3.4522   -4.2821  -10.7949 C.ar      1 UNK         0.0000 
     20 C20         0.4825   -5.5959  -13.0509 C.ar      1 UNK         0.0000 
     21 C21         0.9148   -6.4702  -10.8425 C.ar      1 UNK         0.0000 
     22 C22         3.3536   -0.5146  -11.2674 C.3       1 UNK         0.0000 
     23 C23        -3.2461   -3.8519  -11.5051 C.3       1 UNK         0.0000 
     24 C24         3.4856   -2.0024  -11.5767 C.ar      1 UNK         0.0000 
     25 C25        -1.2726   -5.5903  -11.3884 C.ar      1 UNK         0.0000 
     26 C26        -0.6414   -1.3965  -14.5744 C.ar      1 UNK         0.0000 
     27 C27         3.2159   -4.7146  -12.1005 C.ar      1 UNK         0.0000 
     28 C28         1.3785   -6.0737  -12.0950 C.ar      1 UNK         0.0000 
     29 C29        -2.6266   -5.1460  -10.9178 C.2       1 UNK         0.0000 
     30 C30         0.9335   -0.0974  -12.1481 C.2       1 UNK         0.0000 
     31 C31        -2.3718   -1.9406  -12.8350 C.2       1 UNK         0.0000 
     32 C32         0.6340   -1.7041   -9.2827 C.2       1 UNK         0.0000 
     33 C33         1.8852   -0.1273  -10.9049 C.3       1 UNK         0.0000 
     34 C34        -1.1873   -1.0044  -13.2096 C.3       1 UNK         0.0000 
     35 H35         1.9241    0.9421  -10.6902 H         1 UNK         0.0000 
     36 H36        -1.6186   -0.0036  -13.2785 H         1 UNK         0.0000 
     37 H37         0.6963   -2.3768  -18.0744 H         1 UNK         0.0000 
     38 H38        -1.0866   -0.6762  -17.8699 H         1 UNK         0.0000 
     39 H39         1.6273   -3.4580  -16.0570 H         1 UNK         0.0000 
     40 H40        -1.9449   -0.0538  -15.6445 H         1 UNK         0.0000 
     41 H41         0.7675   -2.8337  -13.8201 H         1 UNK         0.0000 
     42 H42         3.3381   -1.7412  -13.7136 H         1 UNK         0.0000 
     43 H43         3.6771   -2.5877   -9.5092 H         1 UNK         0.0000 
     44 H44        -1.4922   -4.8979  -13.4371 H         1 UNK         0.0000 
     45 H45        -0.7361   -6.4798   -9.4871 H         1 UNK         0.0000 
     46 H46         3.1155   -4.1567  -14.1678 H         1 UNK         0.0000 
     47 H47         3.4118   -4.9885   -9.9805 H         1 UNK         0.0000 
     48 H48         0.8429   -5.3163  -14.0285 H         1 UNK         0.0000 
     49 H49         1.6101   -6.8603  -10.1151 H         1 UNK         0.0000 
     50 H50         4.0345   -0.2531  -10.4563 H         1 UNK         0.0000 
     51 H51         3.6996    0.0649  -12.1266 H         1 UNK         0.0000 
     52 H52        -3.8247   -4.1455  -12.3835 H         1 UNK         0.0000 
     53 H53        -3.9453   -3.4374  -10.7771 H         1 UNK         0.0000 
     54 H54        -1.3762   -2.8119  -11.2709 H         1 UNK         0.0000 
     55 H55        -0.1768   -1.5751  -11.3994 H         1 UNK         0.0000 
     56 H56         1.7372   -0.0898   -8.7645 H         1 UNK         0.0000 
     57 O57         0.5046   -1.7707   -7.9461 O.3       1 UNK         0.0000 
     58 C58        -0.2070   -2.7937   -7.2395 C.3       1 UNK         0.0000 
     59 C59        -1.7031   -2.8323   -7.6176 C.3       1 UNK         0.0000 
     60 H60        -2.1550   -1.8436   -7.5386 H         1 UNK         0.0000 
     61 H61        -1.8588   -3.1780   -8.6382 H         1 UNK         0.0000 
     62 H62        -2.2610   -3.5044   -6.9655 H         1 UNK         0.0000 
     63 C63        -0.0746   -2.3834   -5.7649 C.3       1 UNK         0.0000 
     64 H64        -0.5712   -3.0942   -5.1041 H         1 UNK         0.0000 
     65 H65         0.9707   -2.3251   -5.4598 H         1 UNK         0.0000 
     66 H66        -0.5154   -1.4022   -5.5847 H         1 UNK         0.0000 
     67 C67         0.4579   -4.1697   -7.4436 C.3       1 UNK         0.0000 
     68 H68         0.4199   -4.4825   -8.4855 H         1 UNK         0.0000 
     69 H69         1.5095   -4.1464   -7.1574 H         1 UNK         0.0000 
     70 H70        -0.0327   -4.9422   -6.8515 H         1 UNK         0.0000 
@<TRIPOS>BOND
     1    1   23 1    
     2    1   31 am   BACKBONE|DICT|INTERRES
     3    1   54 1    
     4    2   29 2    
     5    3    6 ar   
     6    3    9 ar   
     7    3   37 1    
     8    4   34 1    
     9    4   55 1    
    10    4   30 am   BACKBONE|DICT|INTERRES
    11    5   30 2    
    12    6   11 ar   
    13    6   38 1    
    14    7   32 am   BACKBONE|DICT|INTERRES
    15    7   33 1    
    16    7   56 1    
    17    8   31 2    
    18    9   13 ar   
    19    9   39 1    
    20   10   32 2    
    21   11   40 1    
    22   11   26 ar   
    23   12   28 1    
    24   12   27 1    
    25   13   26 ar   
    26   13   41 1    
    27   14   24 ar   
    28   14   18 ar   
    29   14   42 1    
    30   15   43 1    
    31   15   19 ar   
    32   15   24 ar   
    33   16   25 ar   
    34   16   20 ar   
    35   16   44 1    
    36   17   45 1    
    37   17   21 ar   
    38   17   25 ar   
    39   18   46 1    
    40   18   27 ar   
    41   19   27 ar   
    42   19   47 1    
    43   20   28 ar   
    44   20   48 1    
    45   21   28 ar   
    46   21   49 1    
    47   22   24 1    
    48   22   33 1    
    49   22   50 1    
    50   22   51 1    
    51   23   52 1    
    52   23   53 1    
    53   23   29 1    
    54   25   29 1    
    55   26   34 1    
    56   30   33 1    
    57   31   34 1    
    58   32   57 1    
    59   33   35 1    
    60   34   36 1    
    61   57   58 1    
    62   58   63 1    
    63   58   67 1    
    64   58   59 1    
    65   59   61 1    
    66   59   62 1    
    67   59   60 1    
    68   63   64 1    
    69   63   65 1    
    70   63   66 1    
    71   67   70 1    
    72   67   68 1    
    73   67   69 1    
@<TRIPOS>SUBSTRUCTURE
     1 UNK         1 GROUP             0       ****    0 ROOT    
@<TRIPOS>MOLECULE
Cpd2-6
70   73    1
SMALL
USER_CHARGES


@<TRIPOS>ATOM
      1 N1         -2.8635   -2.9876  -12.0765 N.am      1 UNK         0.0000 
      2 O2         -3.7659   -6.2616  -12.3119 O.2       1 UNK         0.0000 
      3 C3         -0.6481   -2.9155  -16.4136 C.ar      1 UNK         0.0000 
      4 N4          0.1007   -0.8101  -11.8499 N.am      1 UNK         0.0000 
      5 O5          1.0391    0.4943  -13.4476 O.2       1 UNK         0.0000 
      6 C6         -0.1249   -3.5737  -15.3033 C.ar      1 UNK         0.0000 
      7 N7          2.1387   -0.1613  -10.0114 N.am      1 UNK         0.0000 
      8 O8         -1.7651   -2.0939  -10.3179 O.2       1 UNK         0.0000 
      9 C9         -1.3198   -1.7038  -16.2673 C.ar      1 UNK         0.0000 
     10 O10         2.8426   -0.1776   -7.8355 O.2       1 UNK         0.0000 
     11 C11        -0.2746   -3.0137  -14.0376 C.ar      1 UNK         0.0000 
     12 O12         2.6310   -5.8457  -11.8552 O.3       1 UNK         0.0000 
     13 C13        -1.4748   -1.1488  -14.9992 C.ar      1 UNK         0.0000 
     14 C14         3.1448   -2.5038  -13.2299 C.ar      1 UNK         0.0000 
     15 C15         3.9714   -2.5686  -10.9555 C.ar      1 UNK         0.0000 
     16 C16        -0.8875   -6.4523  -12.6763 C.ar      1 UNK         0.0000 
     17 C17        -0.7648   -5.1445  -10.6444 C.ar      1 UNK         0.0000 
     18 C18         2.9177   -3.8745  -13.1826 C.ar      1 UNK         0.0000 
     19 C19         3.7295   -3.9398  -10.9066 C.ar      1 UNK         0.0000 
     20 C20         0.5037   -6.5537  -12.6936 C.ar      1 UNK         0.0000 
     21 C21         0.6206   -5.2519  -10.6650 C.ar      1 UNK         0.0000 
     22 C22         3.6123   -0.3104  -12.0679 C.3       1 UNK         0.0000 
     23 C23        -3.5620   -4.0767  -11.3548 C.3       1 UNK         0.0000 
     24 C24         3.6080   -1.8397  -12.0927 C.ar      1 UNK         0.0000 
     25 C25        -1.5256   -5.6879  -11.6876 C.ar      1 UNK         0.0000 
     26 C26        -0.9548   -1.8001  -13.8749 C.ar      1 UNK         0.0000 
     27 C27         3.1359   -4.5745  -11.9963 C.ar      1 UNK         0.0000 
     28 C28         1.2609   -5.9075  -11.7193 C.ar      1 UNK         0.0000 
     29 C29        -3.0092   -5.4740  -11.7409 C.2       1 UNK         0.0000 
     30 C30         1.0779   -0.0166  -12.3292 C.2       1 UNK         0.0000 
     31 C31        -1.9756   -2.1380  -11.5321 C.2       1 UNK         0.0000 
     32 C32         2.9081    0.3055   -8.9594 C.2       1 UNK         0.0000 
     33 C33         2.3113    0.2812  -11.4207 C.3       1 UNK         0.0000 
     34 C34        -1.1730   -1.2071  -12.4894 C.3       1 UNK         0.0000 
     35 H35         2.3785    1.3715  -11.4294 H         1 UNK         0.0000 
     36 H36        -1.7726   -0.2985  -12.5675 H         1 UNK         0.0000 
     37 H37        -0.5290   -3.3461  -17.3978 H         1 UNK         0.0000 
     38 H38         0.3932   -4.5142  -15.4223 H         1 UNK         0.0000 
     39 H39        -1.7162   -1.1942  -17.1340 H         1 UNK         0.0000 
     40 H40         0.1268   -3.5258  -13.1744 H         1 UNK         0.0000 
     41 H41        -1.9905   -0.2049  -14.8952 H         1 UNK         0.0000 
     42 H42         2.8690   -1.9509  -14.1178 H         1 UNK         0.0000 
     43 H43         4.3567   -2.0668  -10.0793 H         1 UNK         0.0000 
     44 H44        -1.4576   -6.9199  -13.4687 H         1 UNK         0.0000 
     45 H45        -1.2232   -4.5873   -9.8384 H         1 UNK         0.0000 
     46 H46         2.4751   -4.3786  -14.0273 H         1 UNK         0.0000 
     47 H47         3.9151   -4.4950   -9.9995 H         1 UNK         0.0000 
     48 H48         1.0039   -7.0814  -13.4917 H         1 UNK         0.0000 
     49 H49         1.2064   -4.7731   -9.8952 H         1 UNK         0.0000 
     50 H50         4.4982    0.0329  -11.5320 H         1 UNK         0.0000 
     51 H51         3.7383    0.0724  -13.0833 H         1 UNK         0.0000 
     52 H52        -4.6305   -4.0372  -11.5715 H         1 UNK         0.0000 
     53 H53        -3.4906   -3.9750  -10.2702 H         1 UNK         0.0000 
     54 H54        -2.9768   -2.9433  -13.0820 H         1 UNK         0.0000 
     55 H55         0.1701   -1.1369  -10.8976 H         1 UNK         0.0000 
     56 H56         1.6121   -0.9940   -9.8136 H         1 UNK         0.0000 
     57 O57         3.7205    1.3292   -9.3258 O.3       1 UNK         0.0000 
     58 C58         4.6435    1.9951   -8.4583 C.3       1 UNK         0.0000 
     59 C59         3.9207    2.7069   -7.2962 C.3       1 UNK         0.0000 
     60 H60         3.1246    3.3535   -7.6655 H         1 UNK         0.0000 
     61 H61         3.4642    1.9968   -6.6067 H         1 UNK         0.0000 
     62 H62         4.6081    3.3238   -6.7174 H         1 UNK         0.0000 
     63 C63         5.3017    3.0475   -9.3640 C.3       1 UNK         0.0000 
     64 H64         6.0406    3.6386   -8.8225 H         1 UNK         0.0000 
     65 H65         5.8070    2.5824  -10.2111 H         1 UNK         0.0000 
     66 H66         4.5623    3.7372   -9.7725 H         1 UNK         0.0000 
     67 C67         5.7275    1.0301   -7.9345 C.3       1 UNK         0.0000 
     68 H68         5.3121    0.2813   -7.2603 H         1 UNK         0.0000 
     69 H69         6.2076    0.4952   -8.7539 H         1 UNK         0.0000 
     70 H70         6.5038    1.5635   -7.3861 H         1 UNK         0.0000 
@<TRIPOS>BOND
     1    1   23 1    
     2    1   31 am   BACKBONE|DICT|INTERRES
     3    1   54 1    
     4    2   29 2    
     5    3    9 ar   
     6    3    6 ar   
     7    3   37 1    
     8    4   34 1    
     9    4   55 1    
    10    4   30 am   BACKBONE|DICT|INTERRES
    11    5   30 2    
    12    6   11 ar   
    13    6   38 1    
    14    7   32 am   BACKBONE|DICT|INTERRES
    15    7   56 1    
    16    7   33 1    
    17    8   31 2    
    18    9   13 ar   
    19    9   39 1    
    20   10   32 2    
    21   11   26 ar   
    22   11   40 1    
    23   12   28 1    
    24   12   27 1    
    25   13   41 1    
    26   13   26 ar   
    27   14   24 ar   
    28   14   18 ar   
    29   14   42 1    
    30   15   43 1    
    31   15   19 ar   
    32   15   24 ar   
    33   16   25 ar   
    34   16   20 ar   
    35   16   44 1    
    36   17   45 1    
    37   17   21 ar   
    38   17   25 ar   
    39   18   27 ar   
    40   18   46 1    
    41   19   47 1    
    42   19   27 ar   
    43   20   28 ar   
    44   20   48 1    
    45   21   49 1    
    46   21   28 ar   
    47   22   24 1    
    48   22   33 1    
    49   22   50 1    
    50   22   51 1    
    51   23   52 1    
    52   23   53 1    
    53   23   29 1    
    54   25   29 1    
    55   26   34 1    
    56   30   33 1    
    57   31   34 1    
    58   32   57 1    
    59   33   35 1    
    60   34   36 1    
    61   57   58 1    
    62   58   67 1    
    63   58   59 1    
    64   58   63 1    
    65   59   61 1    
    66   59   60 1    
    67   59   62 1    
    68   63   64 1    
    69   63   65 1    
    70   63   66 1    
    71   67   68 1    
    72   67   69 1    
    73   67   70 1    
@<TRIPOS>SUBSTRUCTURE
     1 UNK         1 GROUP             0       ****    0 ROOT    
@<TRIPOS>MOLECULE
Cpd2-7-MEC
70   73    1
SMALL
USER_CHARGES


@<TRIPOS>ATOM
      1 N1         -2.7439   -2.9213  -11.4847 N.am      1 UNK         0.0000 
      2 O2         -3.6535   -6.0527  -10.5219 O.2       1 UNK         0.0000 
      3 C3         -3.7077    2.3634  -11.0676 C.ar      1 UNK         0.0000 
      4 N4          0.0627   -0.6813  -12.3956 N.am      1 UNK         0.0000 
      5 O5          1.1495    0.5280  -10.8138 O.2       1 UNK         0.0000 
      6 C6         -3.2699    1.6379   -9.9617 C.ar      1 UNK         0.0000 
      7 N7          2.4091    1.7182  -13.1652 N.am      1 UNK         0.0000 
      8 O8         -1.7375   -2.4822  -13.4648 O.2       1 UNK         0.0000 
      9 C9         -3.3173    1.9993  -12.3544 C.ar      1 UNK         0.0000 
     10 O10         3.7145    1.5342  -15.0770 O.2       1 UNK         0.0000 
     11 C11        -2.4368    0.5366  -10.1439 C.ar      1 UNK         0.0000 
     12 O12         2.6210   -5.8536  -11.8597 O.3       1 UNK         0.0000 
     13 C13        -2.4835    0.8990  -12.5355 C.ar      1 UNK         0.0000 
     14 C14         3.7258   -2.6644  -13.2698 C.ar      1 UNK         0.0000 
     15 C15         3.2094   -2.3687  -10.9209 C.ar      1 UNK         0.0000 
     16 C16        -0.8994   -5.4269  -12.7621 C.ar      1 UNK         0.0000 
     17 C17        -0.7476   -6.2636  -10.4953 C.ar      1 UNK         0.0000 
     18 C18         3.5004   -4.0338  -13.1454 C.ar      1 UNK         0.0000 
     19 C19         2.9811   -3.7348  -10.8011 C.ar      1 UNK         0.0000 
     20 C20         0.4770   -5.5499  -12.8963 C.ar      1 UNK         0.0000 
     21 C21         0.6348   -6.3813  -10.6342 C.ar      1 UNK         0.0000 
     22 C22         3.6022   -0.3146  -12.3350 C.3       1 UNK         0.0000 
     23 C23        -3.5306   -4.1048  -11.9103 C.3       1 UNK         0.0000 
     24 C24         3.5341   -1.8282  -12.1668 C.ar      1 UNK         0.0000 
     25 C25        -1.5105   -5.7101  -11.5341 C.ar      1 UNK         0.0000 
     26 C26        -2.0395    0.1569  -11.4313 C.ar      1 UNK         0.0000 
     27 C27         3.0757   -4.5576  -11.9248 C.ar      1 UNK         0.0000 
     28 C28         1.2510   -5.9649  -11.8122 C.ar      1 UNK         0.0000 
     29 C29        -2.9665   -5.4281  -11.3325 C.2       1 UNK         0.0000 
     30 C30         1.0951    0.0549  -11.9510 C.2       1 UNK         0.0000 
     31 C31        -1.9019   -2.2267  -12.2698 C.2       1 UNK         0.0000 
     32 C32         3.1467    2.2086  -14.2206 C.2       1 UNK         0.0000 
     33 C33         2.2800    0.2708  -12.9300 C.3       1 UNK         0.0000 
     34 C34        -1.1357   -1.0491  -11.6116 C.3       1 UNK         0.0000 
     35 H35         2.0558   -0.2292  -13.8763 H         1 UNK         0.0000 
     36 H36        -0.7803   -1.4176  -10.6461 H         1 UNK         0.0000 
     37 H37        -4.3528    3.2189  -10.9258 H         1 UNK         0.0000 
     38 H38        -3.5706    1.9317   -8.9661 H         1 UNK         0.0000 
     39 H39        -3.6586    2.5674  -13.2080 H         1 UNK         0.0000 
     40 H40        -2.0903   -0.0111   -9.2795 H         1 UNK         0.0000 
     41 H41        -2.1828    0.6150  -13.5342 H         1 UNK         0.0000 
     42 H42         3.9903   -2.2493  -14.2323 H         1 UNK         0.0000 
     43 H43         3.0616   -1.7255  -10.0645 H         1 UNK         0.0000 
     44 H44        -1.4607   -5.0399  -13.6019 H         1 UNK         0.0000 
     45 H45        -1.2060   -6.5345   -9.5530 H         1 UNK         0.0000 
     46 H46         3.5787   -4.6806  -14.0060 H         1 UNK         0.0000 
     47 H47         2.6531   -4.1494   -9.8602 H         1 UNK         0.0000 
     48 H48         0.9564   -5.2454  -13.8140 H         1 UNK         0.0000 
     49 H49         1.2406   -6.7235   -9.8088 H         1 UNK         0.0000 
     50 H50         3.8392    0.1592  -11.3798 H         1 UNK         0.0000 
     51 H51         4.4488   -0.0837  -12.9841 H         1 UNK         0.0000 
     52 H52        -3.5792   -4.2048  -12.9964 H         1 UNK         0.0000 
     53 H53        -4.5698   -3.9887  -11.5995 H         1 UNK         0.0000 
     54 H54        -2.8635   -2.6030  -10.5330 H         1 UNK         0.0000 
     55 H55         0.1035   -1.0984  -13.3165 H         1 UNK         0.0000 
     56 H56         2.0766    2.3658  -12.4683 H         1 UNK         0.0000 
     57 O57         3.1419    3.5538  -14.1503 O.3       1 UNK         0.0000 
     58 C58         3.8012    4.4248  -15.0768 C.3       1 UNK         0.0000 
     59 C59         3.2288    4.2790  -16.5024 C.3       1 UNK         0.0000 
     60 H60         3.4580    3.3046  -16.9335 H         1 UNK         0.0000 
     61 H61         2.1439    4.3840  -16.5034 H         1 UNK         0.0000 
     62 H62         3.6363    5.0340  -17.1746 H         1 UNK         0.0000 
     63 C63         5.3300    4.2158  -15.0668 C.3       1 UNK         0.0000 
     64 H64         5.8390    4.9678  -15.6695 H         1 UNK         0.0000 
     65 H65         5.7287    4.2759  -14.0541 H         1 UNK         0.0000 
     66 H66         5.6081    3.2399  -15.4646 H         1 UNK         0.0000 
     67 C67         3.4824    5.8323  -14.5484 C.3       1 UNK         0.0000 
     68 H68         2.4071    6.0116  -14.5212 H         1 UNK         0.0000 
     69 H69         3.8549    5.9684  -13.5325 H         1 UNK         0.0000 
     70 H70         3.9307    6.6068  -15.1710 H         1 UNK         0.0000 
@<TRIPOS>BOND
     1    1   54 1    
     2    1   23 1    
     3    1   31 am   BACKBONE|DICT|INTERRES
     4    2   29 2    
     5    3   37 1    
     6    3    6 ar   
     7    3    9 ar   
     8    4   30 am   BACKBONE|DICT|INTERRES
     9    4   34 1    
    10    4   55 1    
    11    5   30 2    
    12    6   38 1    
    13    6   11 ar   
    14    7   33 1    
    15    7   56 1    
    16    7   32 am   BACKBONE|DICT|INTERRES
    17    8   31 2    
    18    9   13 ar   
    19    9   39 1    
    20   10   32 2    
    21   11   40 1    
    22   11   26 ar   
    23   12   28 1    
    24   12   27 1    
    25   13   26 ar   
    26   13   41 1    
    27   14   18 ar   
    28   14   24 ar   
    29   14   42 1    
    30   15   19 ar   
    31   15   43 1    
    32   15   24 ar   
    33   16   25 ar   
    34   16   20 ar   
    35   16   44 1    
    36   17   45 1    
    37   17   21 ar   
    38   17   25 ar   
    39   18   27 ar   
    40   18   46 1    
    41   19   47 1    
    42   19   27 ar   
    43   20   28 ar   
    44   20   48 1    
    45   21   49 1    
    46   21   28 ar   
    47   22   24 1    
    48   22   50 1    
    49   22   33 1    
    50   22   51 1    
    51   23   53 1    
    52   23   29 1    
    53   23   52 1    
    54   25   29 1    
    55   26   34 1    
    56   30   33 1    
    57   31   34 1    
    58   32   57 1    
    59   33   35 1    
    60   34   36 1    
    61   57   58 1    
    62   58   63 1    
    63   58   67 1    
    64   58   59 1    
    65   59   60 1    
    66   59   61 1    
    67   59   62 1    
    68   63   65 1    
    69   63   64 1    
    70   63   66 1    
    71   67   68 1    
    72   67   69 1    
    73   67   70 1    
@<TRIPOS>SUBSTRUCTURE
     1 UNK         1 GROUP             0       ****    0 ROOT    
@<TRIPOS>MOLECULE
Cpd2-8
70   73    1
SMALL
USER_CHARGES


@<TRIPOS>ATOM
      1 N1         -2.7742   -3.1349  -12.7841 N.am      1 UNK         0.0000 
      2 O2         -3.4700   -5.6311  -10.3021 O.2       1 UNK         0.0000 
      3 C3         -0.3285   -2.3820  -16.8497 C.ar      1 UNK         0.0000 
      4 N4         -0.0215   -0.9087  -11.9856 N.am      1 UNK         0.0000 
      5 O5          1.1383    0.5309  -13.3032 O.2       1 UNK         0.0000 
      6 C6          0.3467   -2.9832  -15.7901 C.ar      1 UNK         0.0000 
      7 N7          1.7887   -0.5331   -9.8315 N.am      1 UNK         0.0000 
      8 O8         -2.2767   -2.1003  -10.8407 O.2       1 UNK         0.0000 
      9 C9         -1.2784   -1.3904  -16.6137 C.ar      1 UNK         0.0000 
     10 O10         0.7389   -0.4787   -7.7982 O.2       1 UNK         0.0000 
     11 C11         0.0666   -2.5883  -14.4846 C.ar      1 UNK         0.0000 
     12 O12         2.6706   -5.8985  -12.1507 O.3       1 UNK         0.0000 
     13 C13        -1.5568   -0.9980  -15.3065 C.ar      1 UNK         0.0000 
     14 C14         3.3302   -2.4372  -13.0901 C.ar      1 UNK         0.0000 
     15 C15         3.8246   -2.7351  -10.7383 C.ar      1 UNK         0.0000 
     16 C16        -0.5808   -5.7974  -10.4684 C.ar      1 UNK         0.0000 
     17 C17        -0.9110   -5.6330  -12.8600 C.ar      1 UNK         0.0000 
     18 C18         3.1334   -3.8083  -13.2196 C.ar      1 UNK         0.0000 
     19 C19         3.6030   -4.1040  -10.8669 C.ar      1 UNK         0.0000 
     20 C20         0.7843   -5.9840  -10.6717 C.ar      1 UNK         0.0000 
     21 C21         0.4535   -5.8317  -13.0580 C.ar      1 UNK         0.0000 
     22 C22         3.5286   -0.3796  -11.6374 C.3       1 UNK         0.0000 
     23 C23        -3.6111   -4.2375  -12.2464 C.3       1 UNK         0.0000 
     24 C24         3.6016   -1.8935  -11.8328 C.ar      1 UNK         0.0000 
     25 C25        -1.4280   -5.5542  -11.5585 C.ar      1 UNK         0.0000 
     26 C26        -0.8860   -1.5949  -14.2328 C.ar      1 UNK         0.0000 
     27 C27         3.1825   -4.6247  -12.0904 C.ar      1 UNK         0.0000 
     28 C28         1.3085   -5.9477  -11.9630 C.ar      1 UNK         0.0000 
     29 C29        -2.8744   -5.2368  -11.3070 C.2       1 UNK         0.0000 
     30 C30         1.0150   -0.0922  -12.2499 C.2       1 UNK         0.0000 
     31 C31        -2.1437   -2.1906  -12.0606 C.2       1 UNK         0.0000 
     32 C32         0.9463    0.0357   -8.8901 C.2       1 UNK         0.0000 
     33 C33         2.1126    0.0659  -11.1524 C.3       1 UNK         0.0000 
     34 C34        -1.2226   -1.1809  -12.8060 C.3       1 UNK         0.0000 
     35 H35         2.1933    1.1463  -11.0120 H         1 UNK         0.0000 
     36 H36        -1.7819   -0.2437  -12.8283 H         1 UNK         0.0000 
     37 H37        -0.1096   -2.6823  -17.8649 H         1 UNK         0.0000 
     38 H38         1.0852   -3.7479  -15.9821 H         1 UNK         0.0000 
     39 H39        -1.7928   -0.9231  -17.4415 H         1 UNK         0.0000 
     40 H40         0.5797   -3.0514  -13.6552 H         1 UNK         0.0000 
     41 H41        -2.2904   -0.2236  -15.1325 H         1 UNK         0.0000 
     42 H42         3.1724   -1.7938  -13.9453 H         1 UNK         0.0000 
     43 H43         4.0779   -2.3279   -9.7700 H         1 UNK         0.0000 
     44 H44        -0.9615   -5.7765   -9.4552 H         1 UNK         0.0000 
     45 H45        -1.5434   -5.4942  -13.7258 H         1 UNK         0.0000 
     46 H46         2.8329   -4.2245  -14.1682 H         1 UNK         0.0000 
     47 H47         3.6670   -4.7500  -10.0045 H         1 UNK         0.0000 
     48 H48         1.4488   -6.0912   -9.8280 H         1 UNK         0.0000 
     49 H49         0.8649   -5.8267  -14.0556 H         1 UNK         0.0000 
     50 H50         4.2917   -0.0702  -10.9213 H         1 UNK         0.0000 
     51 H51         3.7893    0.1260  -12.5701 H         1 UNK         0.0000 
     52 H52        -4.0457   -4.8085  -13.0663 H         1 UNK         0.0000 
     53 H53        -4.4448   -3.7994  -11.6931 H         1 UNK         0.0000 
     54 H54        -2.6241   -3.0964  -13.7843 H         1 UNK         0.0000 
     55 H55        -0.0542   -1.3277  -11.0648 H         1 UNK         0.0000 
     56 H56         2.1758   -1.4328   -9.6012 H         1 UNK         0.0000 
     57 O57         0.3666    1.1732   -9.3448 O.3       1 UNK         0.0000 
     58 C58        -0.6915    1.8739   -8.6851 C.3       1 UNK         0.0000 
     59 C59        -1.9458    0.9878   -8.5309 C.3       1 UNK         0.0000 
     60 H60        -2.2323    0.5404   -9.4836 H         1 UNK         0.0000 
     61 H61        -1.7791    0.1670   -7.8334 H         1 UNK         0.0000 
     62 H62        -2.7971    1.5594   -8.1620 H         1 UNK         0.0000 
     63 C63        -1.0111    3.0338   -9.6408 C.3       1 UNK         0.0000 
     64 H64        -1.8192    3.6584   -9.2596 H         1 UNK         0.0000 
     65 H65        -0.1412    3.6735   -9.7930 H         1 UNK         0.0000 
     66 H66        -1.3116    2.6655  -10.6225 H         1 UNK         0.0000 
     67 C67        -0.2367    2.4430   -7.3259 C.3       1 UNK         0.0000 
     68 H68        -0.9986    3.0893   -6.8903 H         1 UNK         0.0000 
     69 H69        -0.0311    1.6531   -6.6039 H         1 UNK         0.0000 
     70 H70         0.6763    3.0290   -7.4309 H         1 UNK         0.0000 
@<TRIPOS>BOND
     1    1   23 1    
     2    1   31 am   BACKBONE|DICT|INTERRES
     3    1   54 1    
     4    2   29 2    
     5    3    6 ar   
     6    3    9 ar   
     7    3   37 1    
     8    4   34 1    
     9    4   55 1    
    10    4   30 am   BACKBONE|DICT|INTERRES
    11    5   30 2    
    12    6   11 ar   
    13    6   38 1    
    14    7   56 1    
    15    7   32 am   BACKBONE|DICT|INTERRES
    16    7   33 1    
    17    8   31 2    
    18    9   13 ar   
    19    9   39 1    
    20   10   32 2    
    21   11   40 1    
    22   11   26 ar   
    23   12   28 1    
    24   12   27 1    
    25   13   41 1    
    26   13   26 ar   
    27   14   24 ar   
    28   14   18 ar   
    29   14   42 1    
    30   15   43 1    
    31   15   19 ar   
    32   15   24 ar   
    33   16   44 1    
    34   16   20 ar   
    35   16   25 ar   
    36   17   25 ar   
    37   17   21 ar   
    38   17   45 1    
    39   18   27 ar   
    40   18   46 1    
    41   19   47 1    
    42   19   27 ar   
    43   20   28 ar   
    44   20   48 1    
    45   21   28 ar   
    46   21   49 1    
    47   22   24 1    
    48   22   33 1    
    49   22   50 1    
    50   22   51 1    
    51   23   52 1    
    52   23   29 1    
    53   23   53 1    
    54   25   29 1    
    55   26   34 1    
    56   30   33 1    
    57   31   34 1    
    58   32   57 1    
    59   33   35 1    
    60   34   36 1    
    61   57   58 1    
    62   58   67 1    
    63   58   59 1    
    64   58   63 1    
    65   59   62 1    
    66   59   61 1    
    67   59   60 1    
    68   63   64 1    
    69   63   65 1    
    70   63   66 1    
    71   67   68 1    
    72   67   69 1    
    73   67   70 1    
@<TRIPOS>SUBSTRUCTURE
     1 UNK         1 GROUP             0       ****    0 ROOT    
@<TRIPOS>MOLECULE
Cpd2-9
70   73    1
SMALL
USER_CHARGES


@<TRIPOS>ATOM
      1 N1         -2.7875   -2.9061  -11.4978 N.am      1 UNK         0.0000 
      2 O2         -3.6293   -6.0590  -10.5220 O.2       1 UNK         0.0000 
      3 C3         -3.7927    2.5487  -11.5289 C.ar      1 UNK         0.0000 
      4 N4         -0.0354   -0.6741  -12.4260 N.am      1 UNK         0.0000 
      5 O5          1.1691    0.2536  -10.7409 O.2       1 UNK         0.0000 
      6 C6         -3.0982    2.2614  -12.7015 C.ar      1 UNK         0.0000 
      7 N7          2.2981    1.5806  -13.3105 N.am      1 UNK         0.0000 
      8 O8         -1.9583   -2.3667  -13.5320 O.2       1 UNK         0.0000 
      9 C9         -3.6795    1.7177  -10.4167 C.ar      1 UNK         0.0000 
     10 O10         0.7178    1.3893  -15.0044 O.2       1 UNK         0.0000 
     11 C11        -2.2864    1.1319  -12.7624 C.ar      1 UNK         0.0000 
     12 O12         2.6540   -5.8468  -11.8277 O.3       1 UNK         0.0000 
     13 C13        -2.8669    0.5881  -10.4785 C.ar      1 UNK         0.0000 
     14 C14         3.8091   -2.6966  -13.2740 C.ar      1 UNK         0.0000 
     15 C15         3.3024   -2.3668  -10.9275 C.ar      1 UNK         0.0000 
     16 C16        -0.8619   -5.3159  -12.7251 C.ar      1 UNK         0.0000 
     17 C17        -0.7330   -6.2695  -10.5044 C.ar      1 UNK         0.0000 
     18 C18         3.5800   -4.0632  -13.1298 C.ar      1 UNK         0.0000 
     19 C19         3.0682   -3.7301  -10.7885 C.ar      1 UNK         0.0000 
     20 C20         0.5152   -5.4421  -12.8543 C.ar      1 UNK         0.0000 
     21 C21         0.6500   -6.3890  -10.6379 C.ar      1 UNK         0.0000 
     22 C22         3.6165   -0.3320  -12.3876 C.3       1 UNK         0.0000 
     23 C23        -3.5518   -4.1092  -11.9071 C.3       1 UNK         0.0000 
     24 C24         3.6129   -1.8434  -12.1845 C.ar      1 UNK         0.0000 
     25 C25        -1.4880   -5.6671  -11.5222 C.ar      1 UNK         0.0000 
     26 C26        -2.1664    0.2815  -11.6516 C.ar      1 UNK         0.0000 
     27 C27         3.1463   -4.5655  -11.9036 C.ar      1 UNK         0.0000 
     28 C28         1.2797   -5.9233  -11.7896 C.ar      1 UNK         0.0000 
     29 C29        -2.9517   -5.4139  -11.3245 C.2       1 UNK         0.0000 
     30 C30         1.0565   -0.0788  -11.9222 C.2       1 UNK         0.0000 
     31 C31        -2.0415   -2.1491  -12.3215 C.2       1 UNK         0.0000 
     32 C32         1.4898    2.0605  -14.3219 C.2       1 UNK         0.0000 
     33 C33         2.2344    0.1644  -12.9060 C.3       1 UNK         0.0000 
     34 C34        -1.2831   -0.9546  -11.6870 C.3       1 UNK         0.0000 
     35 H35         2.0456   -0.4355  -13.8016 H         1 UNK         0.0000 
     36 H36        -1.0018   -1.2605  -10.6761 H         1 UNK         0.0000 
     37 H37        -4.4221    3.4260  -11.4806 H         1 UNK         0.0000 
     38 H38        -3.1862    2.9099  -13.5612 H         1 UNK         0.0000 
     39 H39        -4.2165    1.9508   -9.5084 H         1 UNK         0.0000 
     40 H40        -1.7498    0.9168  -13.6767 H         1 UNK         0.0000 
     41 H41        -2.7779   -0.0434   -9.6066 H         1 UNK         0.0000 
     42 H42         4.0611   -2.2985  -14.2465 H         1 UNK         0.0000 
     43 H43         3.1473   -1.7110  -10.0819 H         1 UNK         0.0000 
     44 H44        -1.4135   -4.8864  -13.5506 H         1 UNK         0.0000 
     45 H45        -1.2001   -6.5890   -9.5819 H         1 UNK         0.0000 
     46 H46         3.6468   -4.7213  -13.9828 H         1 UNK         0.0000 
     47 H47         2.7333   -4.1287   -9.8430 H         1 UNK         0.0000 
     48 H48         1.0019   -5.0982  -13.7541 H         1 UNK         0.0000 
     49 H49         1.2461   -6.7802   -9.8273 H         1 UNK         0.0000 
     50 H50         3.8807    0.1710  -11.4550 H         1 UNK         0.0000 
     51 H51         4.4066   -0.0738  -13.0947 H         1 UNK         0.0000 
     52 H52        -3.6083   -4.2232  -12.9914 H         1 UNK         0.0000 
     53 H53        -4.5899   -4.0128  -11.5855 H         1 UNK         0.0000 
     54 H54        -2.8413   -2.6309  -10.5273 H         1 UNK         0.0000 
     55 H55        -0.0549   -0.9225  -13.4073 H         1 UNK         0.0000 
     56 H56         2.7509    2.2542  -12.7161 H         1 UNK         0.0000 
     57 O57         1.6652    3.3923  -14.4094 O.3       1 UNK         0.0000 
     58 C58         0.9389    4.2550  -15.2924 C.3       1 UNK         0.0000 
     59 C59         1.2168    3.9192  -16.7724 C.3       1 UNK         0.0000 
     60 H60         2.2875    3.8915  -16.9751 H         1 UNK         0.0000 
     61 H61         0.8118    2.9464  -17.0506 H         1 UNK         0.0000 
     62 H62         0.7714    4.6576  -17.4390 H         1 UNK         0.0000 
     63 C63         1.4936    5.6535  -14.9795 C.3       1 UNK         0.0000 
     64 H64         1.0198    6.4206  -15.5923 H         1 UNK         0.0000 
     65 H65         1.3322    5.9193  -13.9342 H         1 UNK         0.0000 
     66 H66         2.5680    5.7037  -15.1599 H         1 UNK         0.0000 
     67 C67        -0.5749    4.2341  -14.9915 C.3       1 UNK         0.0000 
     68 H68        -1.0234    3.2716  -15.2375 H         1 UNK         0.0000 
     69 H69        -0.7681    4.4170  -13.9342 H         1 UNK         0.0000 
     70 H70        -1.1060    4.9946  -15.5636 H         1 UNK         0.0000 
@<TRIPOS>BOND
     1    1   54 1    
     2    1   23 1    
     3    1   31 am   BACKBONE|DICT|INTERRES
     4    2   29 2    
     5    3   37 1    
     6    3    9 ar   
     7    3    6 ar   
     8    4   30 am   BACKBONE|DICT|INTERRES
     9    4   34 1    
    10    4   55 1    
    11    5   30 2    
    12    6   11 ar   
    13    6   38 1    
    14    7   33 1    
    15    7   56 1    
    16    7   32 am   BACKBONE|DICT|INTERRES
    17    8   31 2    
    18    9   39 1    
    19    9   13 ar   
    20   10   32 2    
    21   11   26 ar   
    22   11   40 1    
    23   12   28 1    
    24   12   27 1    
    25   13   41 1    
    26   13   26 ar   
    27   14   18 ar   
    28   14   24 ar   
    29   14   42 1    
    30   15   19 ar   
    31   15   43 1    
    32   15   24 ar   
    33   16   25 ar   
    34   16   20 ar   
    35   16   44 1    
    36   17   45 1    
    37   17   21 ar   
    38   17   25 ar   
    39   18   27 ar   
    40   18   46 1    
    41   19   47 1    
    42   19   27 ar   
    43   20   28 ar   
    44   20   48 1    
    45   21   49 1    
    46   21   28 ar   
    47   22   24 1    
    48   22   50 1    
    49   22   33 1    
    50   22   51 1    
    51   23   29 1    
    52   23   53 1    
    53   23   52 1    
    54   25   29 1    
    55   26   34 1    
    56   30   33 1    
    57   31   34 1    
    58   32   57 1    
    59   33   35 1    
    60   34   36 1    
    61   57   58 1    
    62   58   63 1    
    63   58   67 1    
    64   58   59 1    
    65   59   60 1    
    66   59   61 1    
    67   59   62 1    
    68   63   65 1    
    69   63   64 1    
    70   63   66 1    
    71   67   69 1    
    72   67   68 1    
    73   67   70 1    
@<TRIPOS>SUBSTRUCTURE
     1 UNK         1 GROUP             0       ****    0 ROOT    
@<TRIPOS>MOLECULE
Cpd2-10
70   73    1
SMALL
USER_CHARGES


@<TRIPOS>ATOM
      1 N1         -2.7826   -3.1174  -12.7496 N.am      1 UNK         0.0000 
      2 O2         -3.4857   -5.6715  -10.3132 O.2       1 UNK         0.0000 
      3 C3         -0.3123   -2.4034  -16.8275 C.ar      1 UNK         0.0000 
      4 N4         -0.0120   -0.8587  -11.9712 N.am      1 UNK         0.0000 
      5 O5          1.1809    0.4776  -13.3615 O.2       1 UNK         0.0000 
      6 C6         -1.2789   -1.4277  -16.5936 C.ar      1 UNK         0.0000 
      7 N7          1.7732   -0.3982   -9.8503 N.am      1 UNK         0.0000 
      8 O8         -2.1294   -2.1883  -10.7962 O.2       1 UNK         0.0000 
      9 C9          0.3805   -2.9831  -15.7673 C.ar      1 UNK         0.0000 
     10 O10         3.2025    0.9840   -8.6468 O.2       1 UNK         0.0000 
     11 C11        -1.5562   -1.0294  -15.2880 C.ar      1 UNK         0.0000 
     12 O12         2.6575   -5.8915  -12.1484 O.3       1 UNK         0.0000 
     13 C13         0.1009   -2.5826  -14.4633 C.ar      1 UNK         0.0000 
     14 C14         3.3579   -2.4397  -13.1024 C.ar      1 UNK         0.0000 
     15 C15         3.7303   -2.7039  -10.7257 C.ar      1 UNK         0.0000 
     16 C16        -0.9203   -5.6046  -12.8649 C.ar      1 UNK         0.0000 
     17 C17        -0.5999   -5.8562  -10.4795 C.ar      1 UNK         0.0000 
     18 C18         3.1633   -3.8127  -13.2219 C.ar      1 UNK         0.0000 
     19 C19         3.5138   -4.0739  -10.8448 C.ar      1 UNK         0.0000 
     20 C20         0.4445   -5.7978  -13.0642 C.ar      1 UNK         0.0000 
     21 C21         0.7656   -6.0375  -10.6838 C.ar      1 UNK         0.0000 
     22 C22         3.5295   -0.3573  -11.6749 C.3       1 UNK         0.0000 
     23 C23        -3.6204   -4.2224  -12.2158 C.3       1 UNK         0.0000 
     24 C24         3.5714   -1.8774  -11.8418 C.ar      1 UNK         0.0000 
     25 C25        -1.4420   -5.5699  -11.5634 C.ar      1 UNK         0.0000 
     26 C26        -0.8678   -1.6050  -14.2136 C.ar      1 UNK         0.0000 
     27 C27         3.1582   -4.6136  -12.0805 C.ar      1 UNK         0.0000 
     28 C28         1.2948   -5.9525  -11.9705 C.ar      1 UNK         0.0000 
     29 C29        -2.8865   -5.2507  -11.3050 C.2       1 UNK         0.0000 
     30 C30         1.0423   -0.0745  -12.2711 C.2       1 UNK         0.0000 
     31 C31        -2.0872   -2.2190  -12.0269 C.2       1 UNK         0.0000 
     32 C32         2.3900    0.0648   -8.7079 C.2       1 UNK         0.0000 
     33 C33         2.1323    0.1556  -11.1783 C.3       1 UNK         0.0000 
     34 C34        -1.2036   -1.1868  -12.7880 C.3       1 UNK         0.0000 
     35 H35         2.1785    1.2437  -11.0834 H         1 UNK         0.0000 
     36 H36        -1.7958   -0.2705  -12.8165 H         1 UNK         0.0000 
     37 H37        -0.0937   -2.7079  -17.8414 H         1 UNK         0.0000 
     38 H38        -1.8065   -0.9765  -17.4221 H         1 UNK         0.0000 
     39 H39         1.1326   -3.7348  -15.9574 H         1 UNK         0.0000 
     40 H40        -2.3022   -0.2666  -15.1164 H         1 UNK         0.0000 
     41 H41         0.6276   -3.0286  -13.6332 H         1 UNK         0.0000 
     42 H42         3.2497   -1.8082  -13.9737 H         1 UNK         0.0000 
     43 H43         3.9334   -2.2802   -9.7527 H         1 UNK         0.0000 
     44 H44        -1.5483   -5.4321  -13.7278 H         1 UNK         0.0000 
     45 H45        -0.9849   -5.8722   -9.4679 H         1 UNK         0.0000 
     46 H46         2.9110   -4.2427  -14.1784 H         1 UNK         0.0000 
     47 H47         3.5342   -4.7058   -9.9702 H         1 UNK         0.0000 
     48 H48         0.8599   -5.7558  -14.0592 H         1 UNK         0.0000 
     49 H49         1.4270   -6.1769   -9.8425 H         1 UNK         0.0000 
     50 H50         4.3140   -0.0526  -10.9801 H         1 UNK         0.0000 
     51 H51         3.7937    0.1240  -12.6192 H         1 UNK         0.0000 
     52 H52        -4.0739   -4.7744  -13.0385 H         1 UNK         0.0000 
     53 H53        -4.4399   -3.7836  -11.6425 H         1 UNK         0.0000 
     54 H54        -2.6991   -3.0319  -13.7548 H         1 UNK         0.0000 
     55 H55        -0.0826   -1.2150  -11.0293 H         1 UNK         0.0000 
     56 H56         1.3055   -1.2852   -9.7796 H         1 UNK         0.0000 
     57 O57         1.9638   -0.6815   -7.6715 O.3       1 UNK         0.0000 
     58 C58         2.3727   -0.5016   -6.3103 C.3       1 UNK         0.0000 
     59 C59         1.5938   -1.5837   -5.5459 C.3       1 UNK         0.0000 
     60 H60         0.5172   -1.4556   -5.6642 H         1 UNK         0.0000 
     61 H61         1.8387   -2.5818   -5.9104 H         1 UNK         0.0000 
     62 H62         1.8136   -1.5590   -4.4784 H         1 UNK         0.0000 
     63 C63         1.9675    0.8864   -5.7714 C.3       1 UNK         0.0000 
     64 H64         2.1587    0.9700   -4.7016 H         1 UNK         0.0000 
     65 H65         2.5187    1.6888   -6.2620 H         1 UNK         0.0000 
     66 H66         0.9071    1.0780   -5.9352 H         1 UNK         0.0000 
     67 C67         3.8858   -0.7474   -6.1336 C.3       1 UNK         0.0000 
     68 H68         4.1799   -1.7104   -6.5507 H         1 UNK         0.0000 
     69 H69         4.4816    0.0160   -6.6339 H         1 UNK         0.0000 
     70 H70         4.1698   -0.7406   -5.0814 H         1 UNK         0.0000 
@<TRIPOS>BOND
     1    1   23 1    
     2    1   31 am   BACKBONE|DICT|INTERRES
     3    1   54 1    
     4    2   29 2    
     5    3    6 ar   
     6    3    9 ar   
     7    3   37 1    
     8    4   34 1    
     9    4   55 1    
    10    4   30 am   BACKBONE|DICT|INTERRES
    11    5   30 2    
    12    6   11 ar   
    13    6   38 1    
    14    7   56 1    
    15    7   32 am   BACKBONE|DICT|INTERRES
    16    7   33 1    
    17    8   31 2    
    18    9   13 ar   
    19    9   39 1    
    20   10   32 2    
    21   11   40 1    
    22   11   26 ar   
    23   12   28 1    
    24   12   27 1    
    25   13   41 1    
    26   13   26 ar   
    27   14   24 ar   
    28   14   18 ar   
    29   14   42 1    
    30   15   43 1    
    31   15   19 ar   
    32   15   24 ar   
    33   16   25 ar   
    34   16   20 ar   
    35   16   44 1    
    36   17   45 1    
    37   17   21 ar   
    38   17   25 ar   
    39   18   27 ar   
    40   18   46 1    
    41   19   47 1    
    42   19   27 ar   
    43   20   28 ar   
    44   20   48 1    
    45   21   49 1    
    46   21   28 ar   
    47   22   24 1    
    48   22   33 1    
    49   22   50 1    
    50   22   51 1    
    51   23   52 1    
    52   23   29 1    
    53   23   53 1    
    54   25   29 1    
    55   26   34 1    
    56   30   33 1    
    57   31   34 1    
    58   32   57 1    
    59   33   35 1    
    60   34   36 1    
    61   57   58 1    
    62   58   59 1    
    63   58   63 1    
    64   58   67 1    
    65   59   61 1    
    66   59   62 1    
    67   59   60 1    
    68   63   64 1    
    69   63   66 1    
    70   63   65 1    
    71   67   68 1    
    72   67   70 1    
    73   67   69 1    
@<TRIPOS>SUBSTRUCTURE
     1 UNK         1 GROUP             0       ****    0 ROOT    
