@<TRIPOS>MOLECULE
Cpd2-1
70   73    1
SMALL
USER_CHARGES


@<TRIPOS>ATOM
      1 N1         -3.1147    2.0731   -1.1356 N.am      1 UNK         0.0000 
      2 O2         -6.2725    1.2703   -2.1247 O.2       1 UNK         0.0000 
      3 C3         -0.9992   -0.6371   -4.4696 C.ar      1 UNK         0.0000 
      4 N4         -0.2560    0.5706    0.4266 N.am      1 UNK         0.0000 
      5 O5          1.8115    0.3151   -0.4782 O.2       1 UNK         0.0000 
      6 C6         -0.2197    0.5096   -4.3254 C.ar      1 UNK         0.0000 
      7 N7          0.6001   -0.3348    2.8652 N.am      1 UNK         0.0000 
      8 O8         -2.4438    1.9114    1.0278 O.2       1 UNK         0.0000 
      9 C9         -1.7033   -1.1408   -3.3736 C.ar      1 UNK         0.0000 
     10 O10         1.3453    1.7589    3.3602 O.2       1 UNK         0.0000 
     11 C11        -0.1445    1.1521   -3.0885 C.ar      1 UNK         0.0000 
     12 O12        -3.3479   -3.9264    0.2274 O.3       1 UNK         0.0000 
     13 C13        -1.6221   -0.5005   -2.1399 C.ar      1 UNK         0.0000 
     14 C14         0.1144   -2.8248   -0.1703 C.ar      1 UNK         0.0000 
     15 C15        -0.2738   -3.3397    2.1485 C.ar      1 UNK         0.0000 
     16 C16        -4.3885   -0.4142    0.4217 C.ar      1 UNK         0.0000 
     17 C17        -5.1151   -1.3493   -1.6863 C.ar      1 UNK         0.0000 
     18 C18        -1.1502   -3.3025   -0.4881 C.ar      1 UNK         0.0000 
     19 C19        -1.5592   -3.7962    1.8460 C.ar      1 UNK         0.0000 
     20 C20        -3.8981   -1.6536    0.8055 C.ar      1 UNK         0.0000 
     21 C21        -4.6056   -2.5938   -1.3187 C.ar      1 UNK         0.0000 
     22 C22         1.7982   -2.0189    1.5171 C.3       1 UNK         0.0000 
     23 C23        -4.5224    2.3071   -0.8668 C.3       1 UNK         0.0000 
     24 C24         0.5463   -2.7811    1.1610 C.ar      1 UNK         0.0000 
     25 C25        -4.9733   -0.2447   -0.8393 C.ar      1 UNK         0.0000 
     26 C26        -0.8404    0.6485   -1.9897 C.ar      1 UNK         0.0000 
     27 C27        -2.0035   -3.7088    0.5338 C.ar      1 UNK         0.0000 
     28 C28        -3.9662   -2.7259   -0.0881 C.ar      1 UNK         0.0000 
     29 C29        -5.3663    1.1085   -1.3290 C.2       1 UNK         0.0000 
     30 C30         1.0292    0.1672    0.4586 C.2       1 UNK         0.0000 
     31 C31        -2.2062    1.8144   -0.1734 C.2       1 UNK         0.0000 
     32 C32         0.6223    0.8069    3.6092 C.2       1 UNK         0.0000 
     33 C33         1.5055   -0.5184    1.7525 C.3       1 UNK         0.0000 
     34 C34        -0.8043    1.3709   -0.6560 C.3       1 UNK         0.0000 
     35 H35         2.4494   -0.0221    1.9975 H         1 UNK         0.0000 
     36 H36        -0.2018    2.2836   -0.7700 H         1 UNK         0.0000 
     37 H37        -1.0631   -1.1351   -5.4318 H         1 UNK         0.0000 
     38 H38         0.3295    0.9057   -5.1735 H         1 UNK         0.0000 
     39 H39        -2.3250   -2.0253   -3.4843 H         1 UNK         0.0000 
     40 H40         0.4661    2.0437   -2.9740 H         1 UNK         0.0000 
     41 H41        -2.1768   -0.8844   -1.2858 H         1 UNK         0.0000 
     42 H42         0.7535   -2.4326   -0.9583 H         1 UNK         0.0000 
     43 H43         0.0729   -3.3809    3.1788 H         1 UNK         0.0000 
     44 H44        -4.2888    0.4240    1.1030 H         1 UNK         0.0000 
     45 H45        -5.5731   -1.2150   -2.6616 H         1 UNK         0.0000 
     46 H46        -1.5108   -3.2947   -1.5119 H         1 UNK         0.0000 
     47 H47        -2.2281   -4.1537    2.6222 H         1 UNK         0.0000 
     48 H48        -3.4194   -1.7815    1.7707 H         1 UNK         0.0000 
     49 H49        -4.6516   -3.4439   -1.9914 H         1 UNK         0.0000 
     50 H50         2.2565   -2.4141    2.4284 H         1 UNK         0.0000 
     51 H51         2.5327   -2.0846    0.7103 H         1 UNK         0.0000 
     52 H52        -4.8757    3.1893   -1.4030 H         1 UNK         0.0000 
     53 H53        -4.6392    2.4731    0.2075 H         1 UNK         0.0000 
     54 H54        -2.8402    1.9231   -2.0986 H         1 UNK         0.0000 
     55 H55        -0.8082    0.5260    1.2761 H         1 UNK         0.0000 
     56 H56        -0.0331   -1.0739    3.1420 H         1 UNK         0.0000 
     57 O57        -0.2563    0.7214    4.6174 O.3       1 UNK         0.0000 
     58 C58        -0.4675    1.8444    5.5341 C.3       1 UNK         0.0000 
     59 C59         0.8169    2.1433    6.3009 C.3       1 UNK         0.0000 
     60 H60         1.1922    1.2316    6.7754 H         1 UNK         0.0000 
     61 H61         1.5866    2.5505    5.6447 H         1 UNK         0.0000 
     62 H62         0.6000    2.8738    7.0856 H         1 UNK         0.0000 
     63 C63        -1.5406    1.3095    6.4751 C.3       1 UNK         0.0000 
     64 H64        -1.7902    2.0705    7.2189 H         1 UNK         0.0000 
     65 H65        -2.4459    1.0549    5.9170 H         1 UNK         0.0000 
     66 H66        -1.1825    0.4163    6.9946 H         1 UNK         0.0000 
     67 C67        -0.9845    3.0560    4.7649 C.3       1 UNK         0.0000 
     68 H68        -0.2221    3.4583    4.0968 H         1 UNK         0.0000 
     69 H69        -1.8675    2.7815    4.1802 H         1 UNK         0.0000 
     70 H70        -1.2727    3.8332    5.4785 H         1 UNK         0.0000 
@<TRIPOS>BOND
     1    1   54 1    
     2    1   23 1    
     3    1   31 am   BACKBONE|DICT|INTERRES
     4    2   29 2    
     5    3   37 1    
     6    3    6 ar   
     7    3    9 ar   
     8    4   30 am   BACKBONE|DICT|INTERRES
     9    4   34 1    
    10    4   55 1    
    11    5   30 2    
    12    6   38 1    
    13    6   11 ar   
    14    7   32 am   BACKBONE|DICT|INTERRES
    15    7   33 1    
    16    7   56 1    
    17    8   31 2    
    18    9   13 ar   
    19    9   39 1    
    20   10   32 2    
    21   11   40 1    
    22   11   26 ar   
    23   12   28 1    
    24   12   27 1    
    25   13   26 ar   
    26   13   41 1    
    27   14   42 1    
    28   14   18 ar   
    29   14   24 ar   
    30   15   24 ar   
    31   15   19 ar   
    32   15   43 1    
    33   16   44 1    
    34   16   25 ar   
    35   16   20 ar   
    36   17   45 1    
    37   17   25 ar   
    38   17   21 ar   
    39   18   46 1    
    40   18   27 ar   
    41   19   27 ar   
    42   19   47 1    
    43   20   28 ar   
    44   20   48 1    
    45   21   28 ar   
    46   21   49 1    
    47   22   33 1    
    48   22   51 1    
    49   22   24 1    
    50   22   50 1    
    51   23   52 1    
    52   23   29 1    
    53   23   53 1    
    54   25   29 1    
    55   26   34 1    
    56   30   33 1    
    57   31   34 1    
    58   32   57 1    
    59   33   35 1    
    60   34   36 1    
    61   57   58 1    
    62   58   59 1    
    63   58   67 1    
    64   58   63 1    
    65   59   61 1    
    66   59   60 1    
    67   59   62 1    
    68   63   64 1    
    69   63   65 1    
    70   63   66 1    
    71   67   70 1    
    72   67   68 1    
    73   67   69 1    
@<TRIPOS>SUBSTRUCTURE
     1 UNK         1 GROUP             0       ****    0 ROOT    
@<TRIPOS>MOLECULE
Cpd2-2
70   73    1
SMALL
USER_CHARGES


@<TRIPOS>ATOM
      1 N1         -3.1114    2.0658   -1.1128 N.am      1 UNK         0.0000 
      2 O2         -6.2581    1.2865   -2.1302 O.2       1 UNK         0.0000 
      3 C3         -0.9683   -0.6145   -4.4917 C.ar      1 UNK         0.0000 
      4 N4         -0.2474    0.5282    0.4132 N.am      1 UNK         0.0000 
      5 O5          1.8414    0.3802   -0.4643 O.2       1 UNK         0.0000 
      6 C6         -0.1792    0.5220   -4.3224 C.ar      1 UNK         0.0000 
      7 N7          0.6402   -0.3121    2.8626 N.am      1 UNK         0.0000 
      8 O8         -2.4470    1.8315    1.0463 O.2       1 UNK         0.0000 
      9 C9         -1.6978   -1.1217   -3.4136 C.ar      1 UNK         0.0000 
     10 O10         1.2776    1.8384    3.1348 O.2       1 UNK         0.0000 
     11 C11        -0.1181    1.1509   -3.0777 C.ar      1 UNK         0.0000 
     12 O12        -3.3501   -3.9259    0.2149 O.3       1 UNK         0.0000 
     13 C13        -1.6315   -0.4943   -2.1725 C.ar      1 UNK         0.0000 
     14 C14         0.1085   -2.8043   -0.1712 C.ar      1 UNK         0.0000 
     15 C15        -0.2834   -3.3204    2.1458 C.ar      1 UNK         0.0000 
     16 C16        -4.4323   -0.4301    0.4338 C.ar      1 UNK         0.0000 
     17 C17        -5.0964   -1.3382   -1.7069 C.ar      1 UNK         0.0000 
     18 C18        -1.1545   -3.2832   -0.4918 C.ar      1 UNK         0.0000 
     19 C19        -1.5694   -3.7759    1.8413 C.ar      1 UNK         0.0000 
     20 C20        -3.9485   -1.6737    0.8107 C.ar      1 UNK         0.0000 
     21 C21        -4.5876   -2.5855   -1.3459 C.ar      1 UNK         0.0000 
     22 C22         1.8025   -2.0174    1.5156 C.3       1 UNK         0.0000 
     23 C23        -4.5182    2.3029   -0.8404 C.3       1 UNK         0.0000 
     24 C24         0.5401   -2.7634    1.1604 C.ar      1 UNK         0.0000 
     25 C25        -4.9817   -0.2451   -0.8412 C.ar      1 UNK         0.0000 
     26 C26        -0.8388    0.6435   -1.9972 C.ar      1 UNK         0.0000 
     27 C27        -2.0101   -3.6927    0.5276 C.ar      1 UNK         0.0000 
     28 C28        -3.9793   -2.7309   -0.1016 C.ar      1 UNK         0.0000 
     29 C29        -5.3641    1.1141   -1.3236 C.2       1 UNK         0.0000 
     30 C30         1.0544    0.1816    0.4582 C.2       1 UNK         0.0000 
     31 C31        -2.2068    1.7730   -0.1577 C.2       1 UNK         0.0000 
     32 C32         0.5702    0.9014    3.4752 C.2       1 UNK         0.0000 
     33 C33         1.5418   -0.5107    1.7442 C.3       1 UNK         0.0000 
     34 C34        -0.8052    1.3439   -0.6521 C.3       1 UNK         0.0000 
     35 H35         2.4957   -0.0295    1.9762 H         1 UNK         0.0000 
     36 H36        -0.2060    2.2604   -0.7507 H         1 UNK         0.0000 
     37 H37        -1.0202   -1.1024   -5.4598 H         1 UNK         0.0000 
     38 H38         0.3891    0.9203   -5.1567 H         1 UNK         0.0000 
     39 H39        -2.3261   -1.9987   -3.5444 H         1 UNK         0.0000 
     40 H40         0.5010    2.0336   -2.9425 H         1 UNK         0.0000 
     41 H41        -2.2057   -0.8799   -1.3316 H         1 UNK         0.0000 
     42 H42         0.7490   -2.4138   -0.9590 H         1 UNK         0.0000 
     43 H43         0.0643   -3.3742    3.1761 H         1 UNK         0.0000 
     44 H44        -4.3567    0.3975    1.1313 H         1 UNK         0.0000 
     45 H45        -5.5296   -1.1918   -2.6917 H         1 UNK         0.0000 
     46 H46        -1.5111   -3.2780   -1.5170 H         1 UNK         0.0000 
     47 H47        -2.2380   -4.1364    2.6169 H         1 UNK         0.0000 
     48 H48        -3.5048   -1.8210    1.7892 H         1 UNK         0.0000 
     49 H49        -4.6095   -3.4247   -2.0333 H         1 UNK         0.0000 
     50 H50         2.2559   -2.4185    2.4270 H         1 UNK         0.0000 
     51 H51         2.5372   -2.0990    0.7103 H         1 UNK         0.0000 
     52 H52        -4.8656    3.1947   -1.3642 H         1 UNK         0.0000 
     53 H53        -4.6349    2.4529    0.2362 H         1 UNK         0.0000 
     54 H54        -2.8336    1.9488   -2.0798 H         1 UNK         0.0000 
     55 H55        -0.8152    0.4373    1.2479 H         1 UNK         0.0000 
     56 H56         0.0659   -1.0832    3.1646 H         1 UNK         0.0000 
     57 O57        -0.3064    1.0812    4.4733 O.3       1 UNK         0.0000 
     58 C58        -1.3306    0.1468    4.9483 C.3       1 UNK         0.0000 
     59 C59        -2.1268    1.0180    5.9156 C.3       1 UNK         0.0000 
     60 H60        -1.4653    1.4315    6.6808 H         1 UNK         0.0000 
     61 H61        -2.6044    1.8415    5.3778 H         1 UNK         0.0000 
     62 H62        -2.8999    0.4192    6.4034 H         1 UNK         0.0000 
     63 C63        -0.6777   -1.0063    5.7063 C.3       1 UNK         0.0000 
     64 H64        -1.4590   -1.6477    6.1227 H         1 UNK         0.0000 
     65 H65        -0.0360   -1.6307    5.0796 H         1 UNK         0.0000 
     66 H66        -0.0716   -0.6163    6.5279 H         1 UNK         0.0000 
     67 C67        -2.2477   -0.3143    3.8110 C.3       1 UNK         0.0000 
     68 H68        -2.4809    0.5234    3.1445 H         1 UNK         0.0000 
     69 H69        -1.8389   -1.1366    3.2159 H         1 UNK         0.0000 
     70 H70        -3.1830   -0.6785    4.2459 H         1 UNK         0.0000 
@<TRIPOS>BOND
     1    1   54 1    
     2    1   31 am   BACKBONE|DICT|INTERRES
     3    1   23 1    
     4    2   29 2    
     5    3   37 1    
     6    3    9 ar   
     7    3    6 ar   
     8    4   55 1    
     9    4   30 am   BACKBONE|DICT|INTERRES
    10    4   34 1    
    11    5   30 2    
    12    6   11 ar   
    13    6   38 1    
    14    7   33 1    
    15    7   56 1    
    16    7   32 am   BACKBONE|DICT|INTERRES
    17    8   31 2    
    18    9   39 1    
    19    9   13 ar   
    20   10   32 2    
    21   11   26 ar   
    22   11   40 1    
    23   12   27 1    
    24   12   28 1    
    25   13   41 1    
    26   13   26 ar   
    27   14   18 ar   
    28   14   24 ar   
    29   14   42 1    
    30   15   43 1    
    31   15   19 ar   
    32   15   24 ar   
    33   16   20 ar   
    34   16   25 ar   
    35   16   44 1    
    36   17   21 ar   
    37   17   25 ar   
    38   17   45 1    
    39   18   46 1    
    40   18   27 ar   
    41   19   47 1    
    42   19   27 ar   
    43   20   48 1    
    44   20   28 ar   
    45   21   28 ar   
    46   21   49 1    
    47   22   51 1    
    48   22   50 1    
    49   22   24 1    
    50   22   33 1    
    51   23   29 1    
    52   23   52 1    
    53   23   53 1    
    54   25   29 1    
    55   26   34 1    
    56   30   33 1    
    57   31   34 1    
    58   32   57 1    
    59   33   35 1    
    60   34   36 1    
    61   57   58 1    
    62   58   67 1    
    63   58   63 1    
    64   58   59 1    
    65   59   62 1    
    66   59   60 1    
    67   59   61 1    
    68   63   65 1    
    69   63   64 1    
    70   63   66 1    
    71   67   70 1    
    72   67   69 1    
    73   67   68 1    
@<TRIPOS>SUBSTRUCTURE
     1 UNK         1 GROUP             0       ****    0 ROOT    
@<TRIPOS>MOLECULE
Cpd2-3
70   73    1
SMALL
USER_CHARGES


@<TRIPOS>ATOM
      1 N1         -2.9563    1.7279   -0.1072 N.am      1 UNK         0.0000 
      2 O2         -5.7937    1.3542   -2.0255 O.2       1 UNK         0.0000 
      3 C3         -0.9325   -0.7537   -4.4676 C.ar      1 UNK         0.0000 
      4 N4         -0.3581    0.8531    0.3483 N.am      1 UNK         0.0000 
      5 O5          1.6024    0.0107   -0.4398 O.2       1 UNK         0.0000 
      6 C6         -1.5601   -1.1817   -3.2974 C.ar      1 UNK         0.0000 
      7 N7          0.0129   -0.2358    2.7940 N.am      1 UNK         0.0000 
      8 O8         -2.1420    3.3680   -1.4614 O.2       1 UNK         0.0000 
      9 C9         -0.1824    0.4222   -4.4590 C.ar      1 UNK         0.0000 
     10 O10        -0.7750    0.1390    4.8912 O.2       1 UNK         0.0000 
     11 C11        -1.4380   -0.4402   -2.1232 C.ar      1 UNK         0.0000 
     12 O12        -3.3687   -4.1575    0.1869 O.3       1 UNK         0.0000 
     13 C13        -0.0640    1.1659   -3.2858 C.ar      1 UNK         0.0000 
     14 C14         0.0477   -2.8665   -0.0292 C.ar      1 UNK         0.0000 
     15 C15        -0.4569   -3.3558    2.2738 C.ar      1 UNK         0.0000 
     16 C16        -4.5880   -0.7386    0.6364 C.ar      1 UNK         0.0000 
     17 C17        -4.8575   -1.3779   -1.6806 C.ar      1 UNK         0.0000 
     18 C18        -1.1659   -3.4245   -0.4137 C.ar      1 UNK         0.0000 
     19 C19        -1.6829   -3.9113    1.9008 C.ar      1 UNK         0.0000 
     20 C20        -4.1609   -2.0202    0.9458 C.ar      1 UNK         0.0000 
     21 C21        -4.4119   -2.6652   -1.3820 C.ar      1 UNK         0.0000 
     22 C22         1.5497   -1.9056    1.7532 C.3       1 UNK         0.0000 
     23 C23        -4.3616    2.0847   -0.2456 C.3       1 UNK         0.0000 
     24 C24         0.3891   -2.7679    1.3260 C.ar      1 UNK         0.0000 
     25 C25        -4.8944   -0.3943   -0.6880 C.ar      1 UNK         0.0000 
     26 C26        -0.6863    0.7370   -2.1130 C.ar      1 UNK         0.0000 
     27 C27        -2.0501   -3.8746    0.5622 C.ar      1 UNK         0.0000 
     28 C28        -4.0109   -2.9558   -0.0811 C.ar      1 UNK         0.0000 
     29 C29        -5.1141    1.0312   -1.0709 C.2       1 UNK         0.0000 
     30 C30         0.8102    0.1648    0.4806 C.2       1 UNK         0.0000 
     31 C31        -1.9775    2.3402   -0.8171 C.2       1 UNK         0.0000 
     32 C32         0.1281    0.2387    4.0762 C.2       1 UNK         0.0000 
     33 C33         1.1147   -0.4216    1.8675 C.3       1 UNK         0.0000 
     34 C34        -0.6250    1.6130   -0.8670 C.3       1 UNK         0.0000 
     35 H35         1.9620    0.1554    2.2454 H         1 UNK         0.0000 
     36 H36         0.1375    2.3851   -1.0127 H         1 UNK         0.0000 
     37 H37        -1.0290   -1.3332   -5.3801 H         1 UNK         0.0000 
     38 H38        -2.1546   -2.0909   -3.3031 H         1 UNK         0.0000 
     39 H39         0.3110    0.7611   -5.3643 H         1 UNK         0.0000 
     40 H40        -1.9227   -0.7890   -1.2124 H         1 UNK         0.0000 
     41 H41         0.5206    2.0819   -3.2781 H         1 UNK         0.0000 
     42 H42         0.7085   -2.4472   -0.7834 H         1 UNK         0.0000 
     43 H43        -0.1838   -3.3285    3.3259 H         1 UNK         0.0000 
     44 H44        -4.6636   -0.0030    1.4329 H         1 UNK         0.0000 
     45 H45        -5.1052   -1.1089   -2.7031 H         1 UNK         0.0000 
     46 H46        -1.4657   -3.4448   -1.4570 H         1 UNK         0.0000 
     47 H47        -2.3742   -4.2989    2.6423 H         1 UNK         0.0000 
     48 H48        -3.8858   -2.2824    1.9614 H         1 UNK         0.0000 
     49 H49        -4.3069   -3.4192   -2.1556 H         1 UNK         0.0000 
     50 H50         1.9271   -2.2142    2.7324 H         1 UNK         0.0000 
     51 H51         2.3696   -1.9607    1.0332 H         1 UNK         0.0000 
     52 H52        -4.4245    3.0395   -0.7661 H         1 UNK         0.0000 
     53 H53        -4.8253    2.1906    0.7407 H         1 UNK         0.0000 
     54 H54        -2.7371    0.8414    0.3301 H         1 UNK         0.0000 
     55 H55        -0.7830    1.1553    1.2188 H         1 UNK         0.0000 
     56 H56        -0.7976   -0.8348    2.6742 H         1 UNK         0.0000 
     57 O57         1.3072    0.8291    4.2835 O.3       1 UNK         0.0000 
     58 C58         1.6358    1.4412    5.5753 C.3       1 UNK         0.0000 
     59 C59         3.0449    1.9721    5.3414 C.3       1 UNK         0.0000 
     60 H60         3.7243    1.1537    5.0871 H         1 UNK         0.0000 
     61 H61         3.0486    2.7010    4.5263 H         1 UNK         0.0000 
     62 H62         3.4091    2.4599    6.2491 H         1 UNK         0.0000 
     63 C63         1.6363    0.3792    6.6697 C.3       1 UNK         0.0000 
     64 H64         2.0335    0.8189    7.5892 H         1 UNK         0.0000 
     65 H65         0.6301    0.0067    6.8640 H         1 UNK         0.0000 
     66 H66         2.2821   -0.4561    6.3826 H         1 UNK         0.0000 
     67 C67         0.6715    2.5855    5.8695 C.3       1 UNK         0.0000 
     68 H68         0.6487    3.2841    5.0277 H         1 UNK         0.0000 
     69 H69        -0.3371    2.2172    6.0599 H         1 UNK         0.0000 
     70 H70         1.0226    3.1256    6.7533 H         1 UNK         0.0000 
@<TRIPOS>BOND
     1    1   54 1    
     2    1   31 am   BACKBONE|DICT|INTERRES
     3    1   23 1    
     4    2   29 2    
     5    3    9 ar   
     6    3   37 1    
     7    3    6 ar   
     8    4   34 1    
     9    4   30 am   BACKBONE|DICT|INTERRES
    10    4   55 1    
    11    5   30 2    
    12    6   11 ar   
    13    6   38 1    
    14    7   33 1    
    15    7   32 am   BACKBONE|DICT|INTERRES
    16    7   56 1    
    17    8   31 2    
    18    9   39 1    
    19    9   13 ar   
    20   10   32 2    
    21   11   26 ar   
    22   11   40 1    
    23   12   27 1    
    24   12   28 1    
    25   13   41 1    
    26   13   26 ar   
    27   14   42 1    
    28   14   18 ar   
    29   14   24 ar   
    30   15   24 ar   
    31   15   19 ar   
    32   15   43 1    
    33   16   25 ar   
    34   16   20 ar   
    35   16   44 1    
    36   17   45 1    
    37   17   21 ar   
    38   17   25 ar   
    39   18   46 1    
    40   18   27 ar   
    41   19   27 ar   
    42   19   47 1    
    43   20   28 ar   
    44   20   48 1    
    45   21   49 1    
    46   21   28 ar   
    47   22   51 1    
    48   22   24 1    
    49   22   33 1    
    50   22   50 1    
    51   23   29 1    
    52   23   52 1    
    53   23   53 1    
    54   25   29 1    
    55   26   34 1    
    56   30   33 1    
    57   31   34 1    
    58   32   57 1    
    59   33   35 1    
    60   34   36 1    
    61   57   58 1    
    62   58   59 1    
    63   58   63 1    
    64   58   67 1    
    65   59   61 1    
    66   59   60 1    
    67   59   62 1    
    68   63   66 1    
    69   63   64 1    
    70   63   65 1    
    71   67   68 1    
    72   67   69 1    
    73   67   70 1    
@<TRIPOS>SUBSTRUCTURE
     1 UNK         1 GROUP             0       ****    0 ROOT    
@<TRIPOS>MOLECULE
Cpd2-4-MEC
70   73    1
SMALL
USER_CHARGES


@<TRIPOS>ATOM
      1 N1         -3.2411    2.0434   -0.3628 N.am      1 UNK         0.0000 
      2 O2         -6.6216    1.5375   -0.7063 O.2       1 UNK         0.0000 
      3 C3          0.6069    5.5857    0.7773 C.ar      1 UNK         0.0000 
      4 N4          0.0392    0.6031   -0.0439 N.am      1 UNK         0.0000 
      5 O5          1.1029    0.6563    1.9538 O.2       1 UNK         0.0000 
      6 C6         -0.2473    5.0629    1.7473 C.ar      1 UNK         0.0000 
      7 N7          3.3280   -0.1842    0.4021 N.am      1 UNK         0.0000 
      8 O8         -1.7400    1.3057   -1.9076 O.2       1 UNK         0.0000 
      9 C9          0.9695    4.8054   -0.3221 C.ar      1 UNK         0.0000 
     10 O10         4.2599   -1.4494   -1.2487 O.2       1 UNK         0.0000 
     11 C11        -0.7387    3.7636    1.6181 C.ar      1 UNK         0.0000 
     12 O12        -3.3678   -3.8995    0.2870 O.3       1 UNK         0.0000 
     13 C13         0.4762    3.5088   -0.4526 C.ar      1 UNK         0.0000 
     14 C14         0.2835   -3.6350   -0.0201 C.ar      1 UNK         0.0000 
     15 C15        -0.4517   -2.3558    1.8827 C.ar      1 UNK         0.0000 
     16 C16        -3.9962   -0.7713   -1.4969 C.ar      1 UNK         0.0000 
     17 C17        -5.6674   -1.0535    0.2301 C.ar      1 UNK         0.0000 
     18 C18        -1.0215   -4.0817   -0.2370 C.ar      1 UNK         0.0000 
     19 C19        -1.7566   -2.7878    1.6758 C.ar      1 UNK         0.0000 
     20 C20        -3.4792   -2.0223   -1.2059 C.ar      1 UNK         0.0000 
     21 C21        -5.1379   -2.3034    0.5469 C.ar      1 UNK         0.0000 
     22 C22         1.9389   -2.1058    1.1274 C.3       1 UNK         0.0000 
     23 C23        -4.3817    2.1738   -1.2530 C.3       1 UNK         0.0000 
     24 C24         0.5772   -2.7413    1.0140 C.ar      1 UNK         0.0000 
     25 C25        -5.0663   -0.2605   -0.7525 C.ar      1 UNK         0.0000 
     26 C26        -0.3802    2.9838    0.5183 C.ar      1 UNK         0.0000 
     27 C27        -2.0344   -3.6154    0.5904 C.ar      1 UNK         0.0000 
     28 C28        -4.0120   -2.7497   -0.1398 C.ar      1 UNK         0.0000 
     29 C29        -5.4830    1.1595   -0.9089 C.2       1 UNK         0.0000 
     30 C30         1.0098    0.2199    0.8074 C.2       1 UNK         0.0000 
     31 C31        -2.0225    1.6176   -0.7541 C.2       1 UNK         0.0000 
     32 C32         4.3735   -0.6403   -0.3400 C.2       1 UNK         0.0000 
     33 C33         2.0219   -0.8056    0.2953 C.3       1 UNK         0.0000 
     34 C34        -0.9551    1.5823    0.3503 C.3       1 UNK         0.0000 
     35 H35         1.8441   -1.0350   -0.7591 H         1 UNK         0.0000 
     36 H36        -1.4060    1.2655    1.2978 H         1 UNK         0.0000 
     37 H37         0.9929    6.5949    0.8789 H         1 UNK         0.0000 
     38 H38        -0.5254    5.6610    2.6092 H         1 UNK         0.0000 
     39 H39         1.6364    5.2070   -1.0786 H         1 UNK         0.0000 
     40 H40        -1.3904    3.3520    2.3851 H         1 UNK         0.0000 
     41 H41         0.7591    2.8996   -1.3073 H         1 UNK         0.0000 
     42 H42         1.0764   -3.9597   -0.6892 H         1 UNK         0.0000 
     43 H43        -0.2325   -1.6797    2.7052 H         1 UNK         0.0000 
     44 H44        -3.5367   -0.1817   -2.2828 H         1 UNK         0.0000 
     45 H45        -6.5056   -0.6565    0.7946 H         1 UNK         0.0000 
     46 H46        -1.2635   -4.7370   -1.0676 H         1 UNK         0.0000 
     47 H47        -2.5672   -2.4526    2.3161 H         1 UNK         0.0000 
     48 H48        -2.6247   -2.4088   -1.7511 H         1 UNK         0.0000 
     49 H49        -5.5408   -2.8993    1.3588 H         1 UNK         0.0000 
     50 H50         2.1643   -1.8516    2.1683 H         1 UNK         0.0000 
     51 H51         2.7199   -2.7777    0.7589 H         1 UNK         0.0000 
     52 H52        -4.0276    2.0193   -2.2761 H         1 UNK         0.0000 
     53 H53        -4.8138    3.1733   -1.1767 H         1 UNK         0.0000 
     54 H54        -3.3797    2.2723    0.6132 H         1 UNK         0.0000 
     55 H55         0.0052    0.2641   -0.9990 H         1 UNK         0.0000 
     56 H56         3.5306    0.3496    1.2386 H         1 UNK         0.0000 
     57 O57         5.5147   -0.0583    0.0581 O.3       1 UNK         0.0000 
     58 C58         6.7865   -0.3580   -0.6016 C.3       1 UNK         0.0000 
     59 C59         7.1287   -1.8354   -0.4349 C.3       1 UNK         0.0000 
     60 H60         7.0877   -2.1136    0.6226 H         1 UNK         0.0000 
     61 H61         6.4442   -2.4684   -1.0003 H         1 UNK         0.0000 
     62 H62         8.1472   -2.0072   -0.7952 H         1 UNK         0.0000 
     63 C63         7.7751    0.5097    0.1686 C.3       1 UNK         0.0000 
     64 H64         8.7804    0.3711   -0.2373 H         1 UNK         0.0000 
     65 H65         7.5048    1.5658    0.0821 H         1 UNK         0.0000 
     66 H66         7.7831    0.2327    1.2264 H         1 UNK         0.0000 
     67 C67         6.7305    0.0659   -2.0660 C.3       1 UNK         0.0000 
     68 H68         6.0448   -0.5616   -2.6361 H         1 UNK         0.0000 
     69 H69         6.4132    1.1102   -2.1432 H         1 UNK         0.0000 
     70 H70         7.7310   -0.0212   -2.4997 H         1 UNK         0.0000 
@<TRIPOS>BOND
     1    1   54 1    
     2    1   23 1    
     3    1   31 am   BACKBONE|DICT|INTERRES
     4    2   29 2    
     5    3   37 1    
     6    3    6 ar   
     7    3    9 ar   
     8    4   34 1    
     9    4   30 am   BACKBONE|DICT|INTERRES
    10    4   55 1    
    11    5   30 2    
    12    6   38 1    
    13    6   11 ar   
    14    7   56 1    
    15    7   32 am   BACKBONE|DICT|INTERRES
    16    7   33 1    
    17    8   31 2    
    18    9   13 ar   
    19    9   39 1    
    20   10   32 2    
    21   11   40 1    
    22   11   26 ar   
    23   12   27 1    
    24   12   28 1    
    25   13   26 ar   
    26   13   41 1    
    27   14   24 ar   
    28   14   18 ar   
    29   14   42 1    
    30   15   43 1    
    31   15   19 ar   
    32   15   24 ar   
    33   16   20 ar   
    34   16   25 ar   
    35   16   44 1    
    36   17   21 ar   
    37   17   45 1    
    38   17   25 ar   
    39   18   27 ar   
    40   18   46 1    
    41   19   47 1    
    42   19   27 ar   
    43   20   28 ar   
    44   20   48 1    
    45   21   49 1    
    46   21   28 ar   
    47   22   50 1    
    48   22   24 1    
    49   22   33 1    
    50   22   51 1    
    51   23   53 1    
    52   23   29 1    
    53   23   52 1    
    54   25   29 1    
    55   26   34 1    
    56   30   33 1    
    57   31   34 1    
    58   32   57 1    
    59   33   35 1    
    60   34   36 1    
    61   57   58 1    
    62   58   59 1    
    63   58   63 1    
    64   58   67 1    
    65   59   60 1    
    66   59   61 1    
    67   59   62 1    
    68   63   66 1    
    69   63   64 1    
    70   63   65 1    
    71   67   68 1    
    72   67   69 1    
    73   67   70 1    
@<TRIPOS>SUBSTRUCTURE
     1 UNK         1 GROUP             0       ****    0 ROOT    
@<TRIPOS>MOLECULE
Cpd2-5
70   73    1
SMALL
USER_CHARGES


@<TRIPOS>ATOM
      1 N1         -3.2427    2.0434   -0.3607 N.am      1 UNK         0.0000 
      2 O2         -6.6225    1.5359   -0.7160 O.2       1 UNK         0.0000 
      3 C3          0.6228    5.5809    0.7656 C.ar      1 UNK         0.0000 
      4 N4          0.0304    0.5958   -0.0366 N.am      1 UNK         0.0000 
      5 O5          1.1169    0.6658    1.9487 O.2       1 UNK         0.0000 
      6 C6          1.0265    4.7749   -0.3002 C.ar      1 UNK         0.0000 
      7 N7          3.3244   -0.1768    0.3948 N.am      1 UNK         0.0000 
      8 O8         -1.7393    1.3083   -1.9045 O.2       1 UNK         0.0000 
      9 C9         -0.2788    5.0855    1.7070 C.ar      1 UNK         0.0000 
     10 O10         5.5687   -0.2214    0.0215 O.2       1 UNK         0.0000 
     11 C11         0.5280    3.4796   -0.4260 C.ar      1 UNK         0.0000 
     12 O12        -3.3689   -3.8991    0.2909 O.3       1 UNK         0.0000 
     13 C13        -0.7752    3.7878    1.5826 C.ar      1 UNK         0.0000 
     14 C14         0.2811   -3.6292   -0.0257 C.ar      1 UNK         0.0000 
     15 C15        -0.4495   -2.3637    1.8882 C.ar      1 UNK         0.0000 
     16 C16        -3.9932   -0.7716   -1.4961 C.ar      1 UNK         0.0000 
     17 C17        -5.6681   -1.0525    0.2275 C.ar      1 UNK         0.0000 
     18 C18        -1.0239   -4.0762   -0.2412 C.ar      1 UNK         0.0000 
     19 C19        -1.7545   -2.7959    1.6826 C.ar      1 UNK         0.0000 
     20 C20        -3.4768   -2.0223   -1.2031 C.ar      1 UNK         0.0000 
     21 C21        -5.1390   -2.3019    0.5467 C.ar      1 UNK         0.0000 
     22 C22         1.9382   -2.1058    1.1251 C.3       1 UNK         0.0000 
     23 C23        -4.3812    2.1741   -1.2535 C.3       1 UNK         0.0000 
     24 C24         0.5768   -2.7422    1.0137 C.ar      1 UNK         0.0000 
     25 C25        -5.0652   -0.2605   -0.7549 C.ar      1 UNK         0.0000 
     26 C26        -0.3749    2.9819    0.5164 C.ar      1 UNK         0.0000 
     27 C27        -2.0347   -3.6167    0.5925 C.ar      1 UNK         0.0000 
     28 C28        -4.0118   -2.7489   -0.1375 C.ar      1 UNK         0.0000 
     29 C29        -5.4826    1.1589   -0.9134 C.2       1 UNK         0.0000 
     30 C30         1.0104    0.2203    0.8073 C.2       1 UNK         0.0000 
     31 C31        -2.0235    1.6193   -0.7512 C.2       1 UNK         0.0000 
     32 C32         4.4463   -0.6336   -0.2306 C.2       1 UNK         0.0000 
     33 C33         2.0181   -0.8074    0.2892 C.3       1 UNK         0.0000 
     34 C34        -0.9571    1.5826    0.3544 C.3       1 UNK         0.0000 
     35 H35         1.8252   -1.0365   -0.7618 H         1 UNK         0.0000 
     36 H36        -1.4117    1.2738    1.3029 H         1 UNK         0.0000 
     37 H37         1.0135    6.5886    0.8639 H         1 UNK         0.0000 
     38 H38         1.7304    5.1547   -1.0339 H         1 UNK         0.0000 
     39 H39        -0.5898    5.7036    2.5431 H         1 UNK         0.0000 
     40 H40         0.8443    2.8505   -1.2540 H         1 UNK         0.0000 
     41 H41        -1.4650    3.3978    2.3272 H         1 UNK         0.0000 
     42 H42         1.0724   -3.9475   -0.7000 H         1 UNK         0.0000 
     43 H43        -0.2286   -1.6929    2.7146 H         1 UNK         0.0000 
     44 H44        -3.5323   -0.1822   -2.2814 H         1 UNK         0.0000 
     45 H45        -6.5078   -0.6554    0.7896 H         1 UNK         0.0000 
     46 H46        -1.2681   -4.7261   -1.0755 H         1 UNK         0.0000 
     47 H47        -2.5637   -2.4663    2.3277 H         1 UNK         0.0000 
     48 H48        -2.6212   -2.4087   -1.7467 H         1 UNK         0.0000 
     49 H49        -5.5436   -2.8972    1.3582 H         1 UNK         0.0000 
     50 H50         2.1648   -1.8486    2.1648 H         1 UNK         0.0000 
     51 H51         2.7186   -2.7790    0.7566 H         1 UNK         0.0000 
     52 H52        -4.0241    2.0200   -2.2757 H         1 UNK         0.0000 
     53 H53        -4.8140    3.1732   -1.1777 H         1 UNK         0.0000 
     54 H54        -3.3826    2.2712    0.6155 H         1 UNK         0.0000 
     55 H55        -0.0074    0.2543   -0.9906 H         1 UNK         0.0000 
     56 H56         3.4928    0.3917    1.2163 H         1 UNK         0.0000 
     57 O57         4.1390   -1.5533   -1.1553 O.3       1 UNK         0.0000 
     58 C58         5.1770   -2.2090   -1.9521 C.3       1 UNK         0.0000 
     59 C59         5.9017   -1.1822   -2.8161 C.3       1 UNK         0.0000 
     60 H60         5.1788   -0.6070   -3.4024 H         1 UNK         0.0000 
     61 H61         6.4955   -0.5000   -2.2069 H         1 UNK         0.0000 
     62 H62         6.5659   -1.7063   -3.5094 H         1 UNK         0.0000 
     63 C63         4.3715   -3.1697   -2.8188 C.3       1 UNK         0.0000 
     64 H64         5.0449   -3.7303   -3.4721 H         1 UNK         0.0000 
     65 H65         3.6590   -2.6188   -3.4393 H         1 UNK         0.0000 
     66 H66         3.8207   -3.8775   -2.1924 H         1 UNK         0.0000 
     67 C67         6.1256   -2.9789   -1.0385 C.3       1 UNK         0.0000 
     68 H68         6.7279   -2.3032   -0.4303 H         1 UNK         0.0000 
     69 H69         5.5560   -3.6445   -0.3822 H         1 UNK         0.0000 
     70 H70         6.7924   -3.5909   -1.6527 H         1 UNK         0.0000 
@<TRIPOS>BOND
     1    1   31 am   BACKBONE|DICT|INTERRES
     2    1   23 1    
     3    1   54 1    
     4    2   29 2    
     5    3    6 ar   
     6    3    9 ar   
     7    3   37 1    
     8    4   55 1    
     9    4   30 am   BACKBONE|DICT|INTERRES
    10    4   34 1    
    11    5   30 2    
    12    6   11 ar   
    13    6   38 1    
    14    7   33 1    
    15    7   32 am   BACKBONE|DICT|INTERRES
    16    7   56 1    
    17    8   31 2    
    18    9   13 ar   
    19    9   39 1    
    20   10   32 2    
    21   11   40 1    
    22   11   26 ar   
    23   12   28 1    
    24   12   27 1    
    25   13   26 ar   
    26   13   41 1    
    27   14   18 ar   
    28   14   42 1    
    29   14   24 ar   
    30   15   19 ar   
    31   15   24 ar   
    32   15   43 1    
    33   16   44 1    
    34   16   20 ar   
    35   16   25 ar   
    36   17   25 ar   
    37   17   21 ar   
    38   17   45 1    
    39   18   46 1    
    40   18   27 ar   
    41   19   27 ar   
    42   19   47 1    
    43   20   48 1    
    44   20   28 ar   
    45   21   28 ar   
    46   21   49 1    
    47   22   24 1    
    48   22   51 1    
    49   22   33 1    
    50   22   50 1    
    51   23   53 1    
    52   23   52 1    
    53   23   29 1    
    54   25   29 1    
    55   26   34 1    
    56   30   33 1    
    57   31   34 1    
    58   32   57 1    
    59   33   35 1    
    60   34   36 1    
    61   57   58 1    
    62   58   63 1    
    63   58   59 1    
    64   58   67 1    
    65   59   62 1    
    66   59   60 1    
    67   59   61 1    
    68   63   64 1    
    69   63   65 1    
    70   63   66 1    
    71   67   70 1    
    72   67   68 1    
    73   67   69 1    
@<TRIPOS>SUBSTRUCTURE
     1 UNK         1 GROUP             0       ****    0 ROOT    
@<TRIPOS>MOLECULE
Cpd2-6
70   73    1
SMALL
USER_CHARGES


@<TRIPOS>ATOM
      1 N1         -3.1088    2.2157   -0.8154 N.am      1 UNK         0.0000 
      2 O2         -6.2144    1.7672   -0.4836 O.2       1 UNK         0.0000 
      3 C3          1.7997    4.8505   -1.3291 C.ar      1 UNK         0.0000 
      4 N4         -0.3273    0.9279    1.0824 N.am      1 UNK         0.0000 
      5 O5          1.4574    0.4436   -0.2668 O.2       1 UNK         0.0000 
      6 C6          1.8265    4.5264    0.0293 C.ar      1 UNK         0.0000 
      7 N7          0.6902   -0.5046    3.1515 N.am      1 UNK         0.0000 
      8 O8         -1.7961    0.4403   -1.3601 O.2       1 UNK         0.0000 
      9 C9          0.8697    4.2374   -2.1650 C.ar      1 UNK         0.0000 
     10 O10         1.7063    1.3364    4.0324 O.2       1 UNK         0.0000 
     11 C11         0.9273    3.5962    0.5419 C.ar      1 UNK         0.0000 
     12 O12        -3.3406   -3.9717    0.0986 O.3       1 UNK         0.0000 
     13 C13        -0.0299    3.3011   -1.6504 C.ar      1 UNK         0.0000 
     14 C14         0.0294   -2.5522   -0.2314 C.ar      1 UNK         0.0000 
     15 C15        -0.2499   -3.4007    2.0021 C.ar      1 UNK         0.0000 
     16 C16        -4.9224   -0.7087    0.5962 C.ar      1 UNK         0.0000 
     17 C17        -4.6884   -1.1383   -1.7762 C.ar      1 UNK         0.0000 
     18 C18        -1.2233   -3.0376   -0.5789 C.ar      1 UNK         0.0000 
     19 C19        -1.5216   -3.8778    1.6716 C.ar      1 UNK         0.0000 
     20 C20        -4.4205   -1.9757    0.8764 C.ar      1 UNK         0.0000 
     21 C21        -4.2461   -2.4284   -1.5041 C.ar      1 UNK         0.0000 
     22 C22         1.7729   -1.9527    1.4711 C.3       1 UNK         0.0000 
     23 C23        -4.1887    1.9375   -1.7514 C.3       1 UNK         0.0000 
     24 C24         0.5151   -2.6845    1.0751 C.ar      1 UNK         0.0000 
     25 C25        -4.9992   -0.2676   -0.7282 C.ar      1 UNK         0.0000 
     26 C26        -0.0030    2.9727   -0.2960 C.ar      1 UNK         0.0000 
     27 C27        -2.0131   -3.6492    0.3931 C.ar      1 UNK         0.0000 
     28 C28        -4.0409   -2.8020   -0.1787 C.ar      1 UNK         0.0000 
     29 C29        -5.2747    1.1777   -0.9808 C.2       1 UNK         0.0000 
     30 C30         0.8506    0.3274    0.7919 C.2       1 UNK         0.0000 
     31 C31        -1.9971    1.4447   -0.6936 C.2       1 UNK         0.0000 
     32 C32         0.9238    0.4059    4.1404 C.2       1 UNK         0.0000 
     33 C33         1.4701   -0.5109    1.9321 C.3       1 UNK         0.0000 
     34 C34        -0.9848    1.9863    0.3312 C.3       1 UNK         0.0000 
     35 H35         2.4194   -0.0107    2.1507 H         1 UNK         0.0000 
     36 H36        -1.5537    2.5441    1.0837 H         1 UNK         0.0000 
     37 H37         2.4996    5.5765   -1.7306 H         1 UNK         0.0000 
     38 H38         2.5461    5.0008    0.6890 H         1 UNK         0.0000 
     39 H39         0.8421    4.4814   -3.2223 H         1 UNK         0.0000 
     40 H40         0.9523    3.3394    1.5987 H         1 UNK         0.0000 
     41 H41        -0.7414    2.8244   -2.3190 H         1 UNK         0.0000 
     42 H42         0.6228   -2.0216   -0.9704 H         1 UNK         0.0000 
     43 H43         0.1336   -3.5693    3.0062 H         1 UNK         0.0000 
     44 H44        -5.1872   -0.0324    1.4036 H         1 UNK         0.0000 
     45 H45        -4.7620   -0.8063   -2.8076 H         1 UNK         0.0000 
     46 H46        -1.6111   -2.8895   -1.5806 H         1 UNK         0.0000 
     47 H47        -2.1426   -4.3816    2.4052 H         1 UNK         0.0000 
     48 H48        -4.2641   -2.3062    1.8983 H         1 UNK         0.0000 
     49 H49        -3.9757   -3.1109   -2.3027 H         1 UNK         0.0000 
     50 H50         2.2905   -2.4618    2.2892 H         1 UNK         0.0000 
     51 H51         2.4569   -1.8883    0.6217 H         1 UNK         0.0000 
     52 H52        -3.7836    1.3464   -2.5748 H         1 UNK         0.0000 
     53 H53        -4.5969    2.8781   -2.1234 H         1 UNK         0.0000 
     54 H54        -3.2254    3.0090   -0.1990 H         1 UNK         0.0000 
     55 H55        -0.7181    0.7160    1.9903 H         1 UNK         0.0000 
     56 H56         0.0534   -1.2663    3.3497 H         1 UNK         0.0000 
     57 O57         0.1632    0.1327    5.2091 O.3       1 UNK         0.0000 
     58 C58         0.1626    1.0138    6.3800 C.3       1 UNK         0.0000 
     59 C59        -0.3131    2.4081    5.9835 C.3       1 UNK         0.0000 
     60 H60         0.4139    2.9113    5.3452 H         1 UNK         0.0000 
     61 H61        -1.2713    2.3434    5.4588 H         1 UNK         0.0000 
     62 H62        -0.4583    3.0046    6.8888 H         1 UNK         0.0000 
     63 C63         1.5453    1.0291    7.0238 C.3       1 UNK         0.0000 
     64 H64         1.4882    1.5660    7.9752 H         1 UNK         0.0000 
     65 H65         1.8765    0.0063    7.2266 H         1 UNK         0.0000 
     66 H66         2.2762    1.5241    6.3836 H         1 UNK         0.0000 
     67 C67        -0.8501    0.3443    7.3015 C.3       1 UNK         0.0000 
     68 H68        -1.8325    0.3010    6.8231 H         1 UNK         0.0000 
     69 H69        -0.5305   -0.6726    7.5455 H         1 UNK         0.0000 
     70 H70        -0.9370    0.9161    8.2289 H         1 UNK         0.0000 
@<TRIPOS>BOND
     1    1   23 1    
     2    1   54 1    
     3    1   31 am   BACKBONE|DICT|INTERRES
     4    2   29 2    
     5    3    6 ar   
     6    3    9 ar   
     7    3   37 1    
     8    4   34 1    
     9    4   55 1    
    10    4   30 am   BACKBONE|DICT|INTERRES
    11    5   30 2    
    12    6   38 1    
    13    6   11 ar   
    14    7   56 1    
    15    7   32 am   BACKBONE|DICT|INTERRES
    16    7   33 1    
    17    8   31 2    
    18    9   13 ar   
    19    9   39 1    
    20   10   32 2    
    21   11   40 1    
    22   11   26 ar   
    23   12   28 1    
    24   12   27 1    
    25   13   26 ar   
    26   13   41 1    
    27   14   24 ar   
    28   14   18 ar   
    29   14   42 1    
    30   15   43 1    
    31   15   19 ar   
    32   15   24 ar   
    33   16   44 1    
    34   16   20 ar   
    35   16   25 ar   
    36   17   25 ar   
    37   17   21 ar   
    38   17   45 1    
    39   18   27 ar   
    40   18   46 1    
    41   19   47 1    
    42   19   27 ar   
    43   20   48 1    
    44   20   28 ar   
    45   21   28 ar   
    46   21   49 1    
    47   22   24 1    
    48   22   33 1    
    49   22   50 1    
    50   22   51 1    
    51   23   53 1    
    52   23   29 1    
    53   23   52 1    
    54   25   29 1    
    55   26   34 1    
    56   30   33 1    
    57   31   34 1    
    58   32   57 1    
    59   33   35 1    
    60   34   36 1    
    61   57   58 1    
    62   58   59 1    
    63   58   67 1    
    64   58   63 1    
    65   59   61 1    
    66   59   62 1    
    67   59   60 1    
    68   63   64 1    
    69   63   65 1    
    70   63   66 1    
    71   67   68 1    
    72   67   70 1    
    73   67   69 1    
@<TRIPOS>SUBSTRUCTURE
     1 UNK         1 GROUP             0       ****    0 ROOT    
@<TRIPOS>MOLECULE
Cpd2-7
70   73    1
SMALL
USER_CHARGES


@<TRIPOS>ATOM
      1 N1         -3.4270    2.0467    0.2437 N.am      1 UNK         0.0000 
      2 O2         -5.8359    1.3642   -2.3453 O.2       1 UNK         0.0000 
      3 C3         -1.3651    4.0136    3.9545 C.ar      1 UNK         0.0000 
      4 N4         -0.0022    0.8944    0.1004 N.am      1 UNK         0.0000 
      5 O5          1.9936    0.0981   -0.5191 O.2       1 UNK         0.0000 
      6 C6         -2.1106    2.8412    4.0722 C.ar      1 UNK         0.0000 
      7 N7          0.5506   -0.1826    2.8004 N.am      1 UNK         0.0000 
      8 O8         -2.1629    1.1796   -1.4120 O.2       1 UNK         0.0000 
      9 C9         -0.5248    4.1907    2.8561 C.ar      1 UNK         0.0000 
     10 O10         2.0648    0.8325    4.1869 O.2       1 UNK         0.0000 
     11 C11        -2.0224    1.8589    3.0876 C.ar      1 UNK         0.0000 
     12 O12        -3.3673   -3.8994    0.2703 O.3       1 UNK         0.0000 
     13 C13        -0.4506    3.2159    1.8628 C.ar      1 UNK         0.0000 
     14 C14         0.0314   -2.5737   -0.1441 C.ar      1 UNK         0.0000 
     15 C15        -0.2758   -3.2527    2.1434 C.ar      1 UNK         0.0000 
     16 C16        -4.7547   -0.5307    0.5133 C.ar      1 UNK         0.0000 
     17 C17        -4.8212   -1.2542   -1.7921 C.ar      1 UNK         0.0000 
     18 C18        -1.2377   -3.0405   -0.4563 C.ar      1 UNK         0.0000 
     19 C19        -1.5559   -3.7271    1.8421 C.ar      1 UNK         0.0000 
     20 C20        -4.3107   -1.7884    0.8966 C.ar      1 UNK         0.0000 
     21 C21        -4.3705   -2.5164   -1.4175 C.ar      1 UNK         0.0000 
     22 C22         1.7862   -1.9065    1.5316 C.3       1 UNK         0.0000 
     23 C23        -4.5404    2.3463   -0.6325 C.3       1 UNK         0.0000 
     24 C24         0.5150   -2.6332    1.1706 C.ar      1 UNK         0.0000 
     25 C25        -4.9522   -0.2385   -0.8416 C.ar      1 UNK         0.0000 
     26 C26        -1.2084    2.0492    1.9676 C.ar      1 UNK         0.0000 
     27 C27        -2.0402   -3.5769    0.5501 C.ar      1 UNK         0.0000 
     28 C28        -4.0492   -2.7452   -0.0840 C.ar      1 UNK         0.0000 
     29 C29        -5.1858    1.1452   -1.3457 C.2       1 UNK         0.0000 
     30 C30         1.1577    0.2249    0.3673 C.2       1 UNK         0.0000 
     31 C31        -2.3105    1.4457   -0.2286 C.2       1 UNK         0.0000 
     32 C32         0.9842    0.3082    4.0063 C.2       1 UNK         0.0000 
     33 C33         1.4982   -0.3947    1.7305 C.3       1 UNK         0.0000 
     34 C34        -1.2445    1.0434    0.8314 C.3       1 UNK         0.0000 
     35 H35         2.4244    0.1001    2.0369 H         1 UNK         0.0000 
     36 H36        -1.5997    0.0716    1.2119 H         1 UNK         0.0000 
     37 H37        -1.4264    4.7775    4.7231 H         1 UNK         0.0000 
     38 H38        -2.7483    2.6840    4.9371 H         1 UNK         0.0000 
     39 H39         0.0711    5.0936    2.7688 H         1 UNK         0.0000 
     40 H40        -2.5793    0.9289    3.1968 H         1 UNK         0.0000 
     41 H41         0.1986    3.3535    1.0029 H         1 UNK         0.0000 
     42 H42         0.6452   -2.1211   -0.9187 H         1 UNK         0.0000 
     43 H43         0.0992   -3.3408    3.1610 H         1 UNK         0.0000 
     44 H44        -4.9230    0.2286    1.2702 H         1 UNK         0.0000 
     45 H45        -5.0089   -1.0177   -2.8346 H         1 UNK         0.0000 
     46 H46        -1.6287   -2.9473   -1.4642 H         1 UNK         0.0000 
     47 H47        -2.1894   -4.1732    2.6020 H         1 UNK         0.0000 
     48 H48        -4.1027   -2.0223    1.9362 H         1 UNK         0.0000 
     49 H49        -4.1913   -3.2973   -2.1492 H         1 UNK         0.0000 
     50 H50         2.2050   -2.2910    2.4667 H         1 UNK         0.0000 
     51 H51         2.5358   -2.0065    0.7436 H         1 UNK         0.0000 
     52 H52        -4.2378    3.0264   -1.4345 H         1 UNK         0.0000 
     53 H53        -5.3139    2.8468   -0.0428 H         1 UNK         0.0000 
     54 H54        -3.4533    2.3457    1.2079 H         1 UNK         0.0000 
     55 H55        -0.0933    1.0851   -0.8951 H         1 UNK         0.0000 
     56 H56        -0.2521   -0.7982    2.8538 H         1 UNK         0.0000 
     57 O57         0.0301    0.1229    4.9354 O.3       1 UNK         0.0000 
     58 C58         0.2899    0.4462    6.3364 C.3       1 UNK         0.0000 
     59 C59         1.4161   -0.4388    6.8632 C.3       1 UNK         0.0000 
     60 H60         1.1799   -1.4935    6.6905 H         1 UNK         0.0000 
     61 H61         2.3639   -0.1967    6.3798 H         1 UNK         0.0000 
     62 H62         1.5227   -0.2846    7.9410 H         1 UNK         0.0000 
     63 C63        -1.0327    0.0958    7.0081 C.3       1 UNK         0.0000 
     64 H64        -0.9676    0.2861    8.0827 H         1 UNK         0.0000 
     65 H65        -1.8410    0.7051    6.5932 H         1 UNK         0.0000 
     66 H66        -1.2746   -0.9592    6.8526 H         1 UNK         0.0000 
     67 C67         0.5991    1.9308    6.5065 C.3       1 UNK         0.0000 
     68 H68         1.5588    2.1916    6.0605 H         1 UNK         0.0000 
     69 H69        -0.1844    2.5325    6.0380 H         1 UNK         0.0000 
     70 H70         0.6243    2.1662    7.5751 H         1 UNK         0.0000 
@<TRIPOS>BOND
     1    1   31 am   BACKBONE|DICT|INTERRES
     2    1   23 1    
     3    1   54 1    
     4    2   29 2    
     5    3    9 ar   
     6    3    6 ar   
     7    3   37 1    
     8    4   30 am   BACKBONE|DICT|INTERRES
     9    4   55 1    
    10    4   34 1    
    11    5   30 2    
    12    6   11 ar   
    13    6   38 1    
    14    7   33 1    
    15    7   32 am   BACKBONE|DICT|INTERRES
    16    7   56 1    
    17    8   31 2    
    18    9   13 ar   
    19    9   39 1    
    20   10   32 2    
    21   11   26 ar   
    22   11   40 1    
    23   12   28 1    
    24   12   27 1    
    25   13   41 1    
    26   13   26 ar   
    27   14   42 1    
    28   14   18 ar   
    29   14   24 ar   
    30   15   24 ar   
    31   15   19 ar   
    32   15   43 1    
    33   16   25 ar   
    34   16   20 ar   
    35   16   44 1    
    36   17   45 1    
    37   17   21 ar   
    38   17   25 ar   
    39   18   46 1    
    40   18   27 ar   
    41   19   27 ar   
    42   19   47 1    
    43   20   28 ar   
    44   20   48 1    
    45   21   49 1    
    46   21   28 ar   
    47   22   33 1    
    48   22   51 1    
    49   22   24 1    
    50   22   50 1    
    51   23   52 1    
    52   23   29 1    
    53   23   53 1    
    54   25   29 1    
    55   26   34 1    
    56   30   33 1    
    57   31   34 1    
    58   32   57 1    
    59   33   35 1    
    60   34   36 1    
    61   57   58 1    
    62   58   59 1    
    63   58   67 1    
    64   58   63 1    
    65   59   61 1    
    66   59   60 1    
    67   59   62 1    
    68   63   64 1    
    69   63   65 1    
    70   63   66 1    
    71   67   68 1    
    72   67   69 1    
    73   67   70 1    
@<TRIPOS>SUBSTRUCTURE
     1 UNK         1 GROUP             0       ****    0 ROOT    
@<TRIPOS>MOLECULE
Cpd2-8
70   73    1
SMALL
USER_CHARGES


@<TRIPOS>ATOM
      1 N1         -3.2276    2.1849   -0.3095 N.am      1 UNK         0.0000 
      2 O2         -6.3086    1.3079   -2.0029 O.2       1 UNK         0.0000 
      3 C3          1.4134    5.2524   -0.1011 C.ar      1 UNK         0.0000 
      4 N4         -0.3242    0.6750    1.2304 N.am      1 UNK         0.0000 
      5 O5          1.4285    0.6575   -0.2383 O.2       1 UNK         0.0000 
      6 C6          1.5220    4.5681    1.1119 C.ar      1 UNK         0.0000 
      7 N7          1.0941   -0.7618    3.0692 N.am      1 UNK         0.0000 
      8 O8         -1.8061    0.7133   -1.2917 O.2       1 UNK         0.0000 
      9 C9          0.4987    4.8169   -1.0566 C.ar      1 UNK         0.0000 
     10 O10         1.8710    1.2597    3.7643 O.2       1 UNK         0.0000 
     11 C11         0.7182    3.4604    1.3656 C.ar      1 UNK         0.0000 
     12 O12        -3.3834   -3.8734    0.3557 O.3       1 UNK         0.0000 
     13 C13        -0.3057    3.7034   -0.8044 C.ar      1 UNK         0.0000 
     14 C14        -0.0656   -2.4848   -0.3505 C.ar      1 UNK         0.0000 
     15 C15        -0.0301   -3.5417    1.8094 C.ar      1 UNK         0.0000 
     16 C16        -4.4594   -0.3855    0.5299 C.ar      1 UNK         0.0000 
     17 C17        -5.1957   -1.3470   -1.5661 C.ar      1 UNK         0.0000 
     18 C18        -1.3676   -2.9189   -0.5477 C.ar      1 UNK         0.0000 
     19 C19        -1.3490   -3.9711    1.6336 C.ar      1 UNK         0.0000 
     20 C20        -4.0039   -1.6307    0.9359 C.ar      1 UNK         0.0000 
     21 C21        -4.7186   -2.5965   -1.1742 C.ar      1 UNK         0.0000 
     22 C22         1.9091   -2.0430    1.1283 C.3       1 UNK         0.0000 
     23 C23        -4.2131    2.1909   -1.3663 C.3       1 UNK         0.0000 
     24 C24         0.6034   -2.7435    0.8516 C.ar      1 UNK         0.0000 
     25 C25        -5.0076   -0.2264   -0.7502 C.ar      1 UNK         0.0000 
     26 C26        -0.1999    3.0193    0.4062 C.ar      1 UNK         0.0000 
     27 C27        -2.0207   -3.6076    0.4747 C.ar      1 UNK         0.0000 
     28 C28        -4.0679   -2.7065    0.0483 C.ar      1 UNK         0.0000 
     29 C29        -5.2966    1.1043   -1.3579 C.2       1 UNK         0.0000 
     30 C30         0.9036    0.2892    0.8057 C.2       1 UNK         0.0000 
     31 C31        -2.0625    1.4909   -0.3835 C.2       1 UNK         0.0000 
     32 C32         1.2868    0.2135    4.0016 C.2       1 UNK         0.0000 
     33 C33         1.6854   -0.6489    1.7525 C.3       1 UNK         0.0000 
     34 C34        -1.0846    1.8223    0.7552 C.3       1 UNK         0.0000 
     35 H35         2.6598   -0.1607    1.8589 H         1 UNK         0.0000 
     36 H36        -1.6918    2.1210    1.6177 H         1 UNK         0.0000 
     37 H37         2.0396    6.1166   -0.2986 H         1 UNK         0.0000 
     38 H38         2.2341    4.8988    1.8618 H         1 UNK         0.0000 
     39 H39         0.4093    5.3381   -2.0046 H         1 UNK         0.0000 
     40 H40         0.8198    2.9174    2.3033 H         1 UNK         0.0000 
     41 H41        -1.0054    3.3723   -1.5669 H         1 UNK         0.0000 
     42 H42         0.4243   -1.8946   -1.1205 H         1 UNK         0.0000 
     43 H43         0.4942   -3.8104    2.7239 H         1 UNK         0.0000 
     44 H44        -4.3698    0.4601    1.2015 H         1 UNK         0.0000 
     45 H45        -5.6487   -1.2214   -2.5446 H         1 UNK         0.0000 
     46 H46        -1.9012   -2.6692   -1.4592 H         1 UNK         0.0000 
     47 H47        -1.8664   -4.5337    2.4038 H         1 UNK         0.0000 
     48 H48        -3.5292   -1.7624    1.9034 H         1 UNK         0.0000 
     49 H49        -4.7750   -3.4561   -1.8335 H         1 UNK         0.0000 
     50 H50         2.5371   -2.6187    1.8148 H         1 UNK         0.0000 
     51 H51         2.4673   -1.8982    0.1998 H         1 UNK         0.0000 
     52 H52        -3.6949    2.0556   -2.3242 H         1 UNK         0.0000 
     53 H53        -4.7149    3.1594   -1.3889 H         1 UNK         0.0000 
     54 H54        -3.3756    2.8091    0.4719 H         1 UNK         0.0000 
     55 H55        -0.6334    0.2712    2.1042 H         1 UNK         0.0000 
     56 H56         0.6257   -1.6119    3.3542 H         1 UNK         0.0000 
     57 O57         0.7350   -0.1370    5.1700 O.3       1 UNK         0.0000 
     58 C58         0.7143    0.7942    6.3016 C.3       1 UNK         0.0000 
     59 C59        -0.0560    2.0559    5.9230 C.3       1 UNK         0.0000 
     60 H60         0.4836    2.6461    5.1814 H         1 UNK         0.0000 
     61 H61        -1.0407    1.7900    5.5261 H         1 UNK         0.0000 
     62 H62        -0.2014    2.6655    6.8194 H         1 UNK         0.0000 
     63 C63         2.1380    1.0935    6.7601 C.3       1 UNK         0.0000 
     64 H64         2.0982    1.6626    7.6934 H         1 UNK         0.0000 
     65 H65         2.6753    0.1596    6.9506 H         1 UNK         0.0000 
     66 H66         2.6818    1.6761    6.0159 H         1 UNK         0.0000 
     67 C67        -0.0378    0.0067    7.3677 C.3       1 UNK         0.0000 
     68 H68        -1.0446   -0.2417    7.0209 H         1 UNK         0.0000 
     69 H69         0.4934   -0.9196    7.6036 H         1 UNK         0.0000 
     70 H70        -0.1188    0.6055    8.2785 H         1 UNK         0.0000 
@<TRIPOS>BOND
     1    1   23 1    
     2    1   54 1    
     3    1   31 am   BACKBONE|DICT|INTERRES
     4    2   29 2    
     5    3    6 ar   
     6    3    9 ar   
     7    3   37 1    
     8    4   34 1    
     9    4   55 1    
    10    4   30 am   BACKBONE|DICT|INTERRES
    11    5   30 2    
    12    6   38 1    
    13    6   11 ar   
    14    7   56 1    
    15    7   32 am   BACKBONE|DICT|INTERRES
    16    7   33 1    
    17    8   31 2    
    18    9   13 ar   
    19    9   39 1    
    20   10   32 2    
    21   11   40 1    
    22   11   26 ar   
    23   12   28 1    
    24   12   27 1    
    25   13   26 ar   
    26   13   41 1    
    27   14   24 ar   
    28   14   18 ar   
    29   14   42 1    
    30   15   43 1    
    31   15   19 ar   
    32   15   24 ar   
    33   16   44 1    
    34   16   20 ar   
    35   16   25 ar   
    36   17   25 ar   
    37   17   21 ar   
    38   17   45 1    
    39   18   27 ar   
    40   18   46 1    
    41   19   47 1    
    42   19   27 ar   
    43   20   48 1    
    44   20   28 ar   
    45   21   28 ar   
    46   21   49 1    
    47   22   24 1    
    48   22   33 1    
    49   22   50 1    
    50   22   51 1    
    51   23   29 1    
    52   23   53 1    
    53   23   52 1    
    54   25   29 1    
    55   26   34 1    
    56   30   33 1    
    57   31   34 1    
    58   32   57 1    
    59   33   35 1    
    60   34   36 1    
    61   57   58 1    
    62   58   59 1    
    63   58   67 1    
    64   58   63 1    
    65   59   61 1    
    66   59   62 1    
    67   59   60 1    
    68   63   64 1    
    69   63   65 1    
    70   63   66 1    
    71   67   68 1    
    72   67   70 1    
    73   67   69 1    
@<TRIPOS>SUBSTRUCTURE
     1 UNK         1 GROUP             0       ****    0 ROOT    
@<TRIPOS>MOLECULE
Cpd2-9-MRC
70   73    1
SMALL
USER_CHARGES


@<TRIPOS>ATOM
      1 N1         -2.4747    1.6767   -1.3747 N.am      1 UNK         0.0000 
      2 O2         -5.8386    1.6180   -0.6080 O.2       1 UNK         0.0000 
      3 C3          1.4035    6.0083   -1.3977 C.ar      1 UNK         0.0000 
      4 N4          0.1321    1.2442   -0.4801 N.am      1 UNK         0.0000 
      5 O5         -0.3341    0.0713    1.4009 O.2       1 UNK         0.0000 
      6 C6          1.2085    5.8024   -0.0331 C.ar      1 UNK         0.0000 
      7 N7          2.5945   -0.1211   -0.4823 N.am      1 UNK         0.0000 
      8 O8         -2.7974    3.2805    0.1926 O.2       1 UNK         0.0000 
      9 C9          0.9517    5.0579   -2.3149 C.ar      1 UNK         0.0000 
     10 O10         2.6939    1.2152    1.3545 O.2       1 UNK         0.0000 
     11 C11         0.5703    4.6460    0.4157 C.ar      1 UNK         0.0000 
     12 O12        -3.4363   -4.2078    0.4732 O.3       1 UNK         0.0000 
     13 C13         0.3060    3.9074   -1.8668 C.ar      1 UNK         0.0000 
     14 C14         0.1531   -3.6951   -0.0199 C.ar      1 UNK         0.0000 
     15 C15        -0.5089   -2.7254    2.0768 C.ar      1 UNK         0.0000 
     16 C16        -3.8204   -1.1973   -1.5756 C.ar      1 UNK         0.0000 
     17 C17        -5.1523   -0.9678    0.4289 C.ar      1 UNK         0.0000 
     18 C18        -1.1076   -4.2745   -0.1653 C.ar      1 UNK         0.0000 
     19 C19        -1.7732   -3.2900    1.9440 C.ar      1 UNK         0.0000 
     20 C20        -3.5060   -2.5005   -1.2203 C.ar      1 UNK         0.0000 
     21 C21        -4.8167   -2.2653    0.8089 C.ar      1 UNK         0.0000 
     22 C22         1.6361   -1.9259    0.9870 C.3       1 UNK         0.0000 
     23 C23        -3.8289    1.7768   -1.8900 C.3       1 UNK         0.0000 
     24 C24         0.4345   -2.8406    1.0518 C.ar      1 UNK         0.0000 
     25 C25        -4.6165   -0.4083   -0.7362 C.ar      1 UNK         0.0000 
     26 C26         0.1189    3.6916   -0.4967 C.ar      1 UNK         0.0000 
     27 C27        -2.0856   -3.9803    0.7770 C.ar      1 UNK         0.0000 
     28 C28        -3.9527   -3.0026    0.0030 C.ar      1 UNK         0.0000 
     29 C29        -4.8631    1.0301   -1.0372 C.2       1 UNK         0.0000 
     30 C30         0.3245    0.1989    0.3822 C.2       1 UNK         0.0000 
     31 C31        -2.0562    2.4847   -0.3782 C.2       1 UNK         0.0000 
     32 C32         3.1765    0.8304    0.3003 C.2       1 UNK         0.0000 
     33 C33         1.3931   -0.8204   -0.0651 C.3       1 UNK         0.0000 
     34 C34        -0.5665    2.4309   -0.0034 C.3       1 UNK         0.0000 
     35 H35         0.9995   -1.2954   -0.9710 H         1 UNK         0.0000 
     36 H36        -0.5496    2.4145    1.0903 H         1 UNK         0.0000 
     37 H37         1.9056    6.9048   -1.7471 H         1 UNK         0.0000 
     38 H38         1.5607    6.5361    0.6852 H         1 UNK         0.0000 
     39 H39         1.0960    5.2150   -3.3791 H         1 UNK         0.0000 
     40 H40         0.4300    4.4799    1.4802 H         1 UNK         0.0000 
     41 H41        -0.0573    3.1800   -2.5903 H         1 UNK         0.0000 
     42 H42         0.8976   -3.8476   -0.7982 H         1 UNK         0.0000 
     43 H43        -0.2914   -2.0974    2.9342 H         1 UNK         0.0000 
     44 H44        -3.4346   -0.8021   -2.5103 H         1 UNK         0.0000 
     45 H45        -5.7858   -0.3572    1.0646 H         1 UNK         0.0000 
     46 H46        -1.3580   -4.8620   -1.0427 H         1 UNK         0.0000 
     47 H47        -2.5470   -3.1085    2.6837 H         1 UNK         0.0000 
     48 H48        -2.8663   -3.1061   -1.8519 H         1 UNK         0.0000 
     49 H49        -5.1641   -2.6859    1.7466 H         1 UNK         0.0000 
     50 H50         1.8406   -1.4677    1.9583 H         1 UNK         0.0000 
     51 H51         2.5277   -2.4750    0.6683 H         1 UNK         0.0000 
     52 H52        -3.8440    1.3881   -2.9114 H         1 UNK         0.0000 
     53 H53        -4.1289    2.8258   -1.9105 H         1 UNK         0.0000 
     54 H54        -1.8158    1.0177   -1.7687 H         1 UNK         0.0000 
     55 H55         0.8437    1.3811   -1.1894 H         1 UNK         0.0000 
     56 H56         3.0920   -0.4317   -1.3048 H         1 UNK         0.0000 
     57 O57         4.3007    1.2813   -0.2699 O.3       1 UNK         0.0000 
     58 C58         4.9856    2.4663    0.2542 C.3       1 UNK         0.0000 
     59 C59         5.5689    2.1637    1.6303 C.3       1 UNK         0.0000 
     60 H60         4.7805    1.9974    2.3650 H         1 UNK         0.0000 
     61 H61         6.2098    1.2784    1.5812 H         1 UNK         0.0000 
     62 H62         6.1791    3.0123    1.9534 H         1 UNK         0.0000 
     63 C63         4.0271    3.6538    0.2729 C.3       1 UNK         0.0000 
     64 H64         4.5970    4.5716    0.4463 H         1 UNK         0.0000 
     65 H65         3.5143    3.7469   -0.6915 H         1 UNK         0.0000 
     66 H66         3.2781    3.5539    1.0590 H         1 UNK         0.0000 
     67 C67         6.0965    2.6874   -0.7653 C.3       1 UNK         0.0000 
     68 H68         6.7418    1.8065   -0.8236 H         1 UNK         0.0000 
     69 H69         5.6743    2.8826   -1.7550 H         1 UNK         0.0000 
     70 H70         6.7031    3.5464   -0.4673 H         1 UNK         0.0000 
@<TRIPOS>BOND
     1    1   31 am   BACKBONE|DICT|INTERRES
     2    1   23 1    
     3    1   54 1    
     4    2   29 2    
     5    3    6 ar   
     6    3    9 ar   
     7    3   37 1    
     8    4   30 am   BACKBONE|DICT|INTERRES
     9    4   34 1    
    10    4   55 1    
    11    5   30 2    
    12    6   11 ar   
    13    6   38 1    
    14    7   33 1    
    15    7   32 am   BACKBONE|DICT|INTERRES
    16    7   56 1    
    17    8   31 2    
    18    9   13 ar   
    19    9   39 1    
    20   10   32 2    
    21   11   40 1    
    22   11   26 ar   
    23   12   27 1    
    24   12   28 1    
    25   13   26 ar   
    26   13   41 1    
    27   14   24 ar   
    28   14   18 ar   
    29   14   42 1    
    30   15   43 1    
    31   15   19 ar   
    32   15   24 ar   
    33   16   20 ar   
    34   16   25 ar   
    35   16   44 1    
    36   17   21 ar   
    37   17   45 1    
    38   17   25 ar   
    39   18   27 ar   
    40   18   46 1    
    41   19   47 1    
    42   19   27 ar   
    43   20   28 ar   
    44   20   48 1    
    45   21   49 1    
    46   21   28 ar   
    47   22   24 1    
    48   22   50 1    
    49   22   33 1    
    50   22   51 1    
    51   23   53 1    
    52   23   29 1    
    53   23   52 1    
    54   25   29 1    
    55   26   34 1    
    56   30   33 1    
    57   31   34 1    
    58   32   57 1    
    59   33   35 1    
    60   34   36 1    
    61   57   58 1    
    62   58   63 1    
    63   58   59 1    
    64   58   67 1    
    65   59   62 1    
    66   59   60 1    
    67   59   61 1    
    68   63   64 1    
    69   63   66 1    
    70   63   65 1    
    71   67   70 1    
    72   67   68 1    
    73   67   69 1    
@<TRIPOS>SUBSTRUCTURE
     1 UNK         1 GROUP             0       ****    0 ROOT    
@<TRIPOS>MOLECULE
Cpd2-10
70   73    1
SMALL
USER_CHARGES


@<TRIPOS>ATOM
      1 N1         -3.4528    2.0755    0.3119 N.am      1 UNK         0.0000 
      2 O2         -5.7344    1.3813   -2.3502 O.2       1 UNK         0.0000 
      3 C3         -0.4279    4.7957    3.0911 C.ar      1 UNK         0.0000 
      4 N4         -0.0825    0.7614   -0.0332 N.am      1 UNK         0.0000 
      5 O5          1.9235   -0.0397   -0.6084 O.2       1 UNK         0.0000 
      6 C6         -1.2065    3.7673    3.6211 C.ar      1 UNK         0.0000 
      7 N7          0.4907   -0.0739    2.7367 N.am      1 UNK         0.0000 
      8 O8         -2.2173    1.3756   -1.4422 O.2       1 UNK         0.0000 
      9 C9          0.1428    4.6525    1.8260 C.ar      1 UNK         0.0000 
     10 O10         0.0775    0.4887    4.8982 O.2       1 UNK         0.0000 
     11 C11        -1.4225    2.6044    2.8829 C.ar      1 UNK         0.0000 
     12 O12        -3.3565   -3.9361    0.2466 O.3       1 UNK         0.0000 
     13 C13        -0.0799    3.4934    1.0843 C.ar      1 UNK         0.0000 
     14 C14         0.0899   -2.7313   -0.1042 C.ar      1 UNK         0.0000 
     15 C15        -0.3574   -3.1584    2.2223 C.ar      1 UNK         0.0000 
     16 C16        -4.7333   -0.5586    0.5114 C.ar      1 UNK         0.0000 
     17 C17        -4.7162   -1.2334   -1.8124 C.ar      1 UNK         0.0000 
     18 C18        -1.1643   -3.2240   -0.4408 C.ar      1 UNK         0.0000 
     19 C19        -1.6242   -3.6520    1.8981 C.ar      1 UNK         0.0000 
     20 C20        -4.3015   -1.8244    0.8830 C.ar      1 UNK         0.0000 
     21 C21        -4.2718   -2.5017   -1.4499 C.ar      1 UNK         0.0000 
     22 C22         1.7394   -1.8758    1.5959 C.3       1 UNK         0.0000 
     23 C23        -4.6301    2.3412   -0.4898 C.3       1 UNK         0.0000 
     24 C24         0.4906   -2.6419    1.2365 C.ar      1 UNK         0.0000 
     25 C25        -4.8929   -0.2405   -0.8434 C.ar      1 UNK         0.0000 
     26 C26        -0.8706    2.4675    1.6075 C.ar      1 UNK         0.0000 
     27 C27        -2.0314   -3.6312    0.5713 C.ar      1 UNK         0.0000 
     28 C28        -4.0091   -2.7611   -0.1081 C.ar      1 UNK         0.0000 
     29 C29        -5.1459    1.1514   -1.3097 C.2       1 UNK         0.0000 
     30 C30         1.0908    0.1608    0.2783 C.2       1 UNK         0.0000 
     31 C31        -2.3278    1.5803   -0.2369 C.2       1 UNK         0.0000 
     32 C32         0.7862    0.5730    3.9067 C.2       1 UNK         0.0000 
     33 C33         1.4458   -0.3512    1.6828 C.3       1 UNK         0.0000 
     34 C34        -1.1931    1.2443    0.7633 C.3       1 UNK         0.0000 
     35 H35         2.3762    0.1591    1.9387 H         1 UNK         0.0000 
     36 H36        -1.5928    0.4516    1.4050 H         1 UNK         0.0000 
     37 H37        -0.2532    5.6984    3.6681 H         1 UNK         0.0000 
     38 H38        -1.6309    3.8601    4.6159 H         1 UNK         0.0000 
     39 H39         0.7589    5.4454    1.4136 H         1 UNK         0.0000 
     40 H40        -2.0029    1.7902    3.3128 H         1 UNK         0.0000 
     41 H41         0.3617    3.3845    0.0972 H         1 UNK         0.0000 
     42 H42         0.7534   -2.3705   -0.8854 H         1 UNK         0.0000 
     43 H43        -0.0438   -3.1437    3.2636 H         1 UNK         0.0000 
     44 H44        -4.9241    0.1824    1.2801 H         1 UNK         0.0000 
     45 H45        -4.8646   -0.9825   -2.8579 H         1 UNK         0.0000 
     46 H46        -1.4947   -3.2469   -1.4744 H         1 UNK         0.0000 
     47 H47        -2.3058   -4.0015    2.6667 H         1 UNK         0.0000 
     48 H48        -4.1295   -2.0727    1.9252 H         1 UNK         0.0000 
     49 H49        -4.0623   -3.2618   -2.1949 H         1 UNK         0.0000 
     50 H50         2.1263   -2.1890    2.5699 H         1 UNK         0.0000 
     51 H51         2.5189   -2.0263    0.8463 H         1 UNK         0.0000 
     52 H52        -4.4466    3.1454   -1.2083 H         1 UNK         0.0000 
     53 H53        -5.4298    2.6657    0.1819 H         1 UNK         0.0000 
     54 H54        -3.4761    2.2773    1.3024 H         1 UNK         0.0000 
     55 H55        -0.1816    0.9448   -1.0292 H         1 UNK         0.0000 
     56 H56        -0.2815   -0.7224    2.8439 H         1 UNK         0.0000 
     57 O57         1.8987    1.3066    3.8013 O.3       1 UNK         0.0000 
     58 C58         2.5510    1.8754    4.9848 C.3       1 UNK         0.0000 
     59 C59         1.6744    2.9507    5.6153 C.3       1 UNK         0.0000 
     60 H60         1.4190    3.7108    4.8721 H         1 UNK         0.0000 
     61 H61         0.7550    2.5262    6.0197 H         1 UNK         0.0000 
     62 H62         2.2329    3.4300    6.4249 H         1 UNK         0.0000 
     63 C63         3.8160    2.4917    4.3995 C.3       1 UNK         0.0000 
     64 H64         4.3967    2.9660    5.1949 H         1 UNK         0.0000 
     65 H65         4.4328    1.7234    3.9249 H         1 UNK         0.0000 
     66 H66         3.5590    3.2494    3.6539 H         1 UNK         0.0000 
     67 C67         2.8989    0.7590    5.9643 C.3       1 UNK         0.0000 
     68 H68         2.0026    0.3286    6.4131 H         1 UNK         0.0000 
     69 H69         3.4618   -0.0286    5.4539 H         1 UNK         0.0000 
     70 H70         3.5268    1.1682    6.7608 H         1 UNK         0.0000 
@<TRIPOS>BOND
     1    1   31 am   BACKBONE|DICT|INTERRES
     2    1   23 1    
     3    1   54 1    
     4    2   29 2    
     5    3    9 ar   
     6    3    6 ar   
     7    3   37 1    
     8    4   30 am   BACKBONE|DICT|INTERRES
     9    4   55 1    
    10    4   34 1    
    11    5   30 2    
    12    6   11 ar   
    13    6   38 1    
    14    7   33 1    
    15    7   32 am   BACKBONE|DICT|INTERRES
    16    7   56 1    
    17    8   31 2    
    18    9   13 ar   
    19    9   39 1    
    20   10   32 2    
    21   11   26 ar   
    22   11   40 1    
    23   12   28 1    
    24   12   27 1    
    25   13   41 1    
    26   13   26 ar   
    27   14   42 1    
    28   14   18 ar   
    29   14   24 ar   
    30   15   24 ar   
    31   15   19 ar   
    32   15   43 1    
    33   16   25 ar   
    34   16   20 ar   
    35   16   44 1    
    36   17   45 1    
    37   17   21 ar   
    38   17   25 ar   
    39   18   46 1    
    40   18   27 ar   
    41   19   27 ar   
    42   19   47 1    
    43   20   28 ar   
    44   20   48 1    
    45   21   49 1    
    46   21   28 ar   
    47   22   51 1    
    48   22   24 1    
    49   22   33 1    
    50   22   50 1    
    51   23   29 1    
    52   23   52 1    
    53   23   53 1    
    54   25   29 1    
    55   26   34 1    
    56   30   33 1    
    57   31   34 1    
    58   32   57 1    
    59   33   35 1    
    60   34   36 1    
    61   57   58 1    
    62   58   63 1    
    63   58   59 1    
    64   58   67 1    
    65   59   60 1    
    66   59   61 1    
    67   59   62 1    
    68   63   66 1    
    69   63   65 1    
    70   63   64 1    
    71   67   69 1    
    72   67   68 1    
    73   67   70 1    
@<TRIPOS>SUBSTRUCTURE
     1 UNK         1 GROUP             0       ****    0 ROOT    
