@<TRIPOS>MOLECULE
Cpd2-500
70   73    1
SMALL
USER_CHARGES


@<TRIPOS>ATOM
      1 C          -6.8540   -0.6860    0.2720 C.3       1 ****        0.0000 
      2 H          -7.1220    0.3330   -0.0300 H         1 ****        0.0000 
      3 H          -7.7480   -1.3140    0.1680 H         1 ****        0.0000 
      4 H          -6.4610   -0.7310    1.2950 H         1 ****        0.0000 
      5 C          -5.8460   -1.1350   -0.7850 C.3       1 ****        0.0000 
      6 C          -5.6520   -2.5920   -0.7580 C.3       1 ****        0.0000 
      7 H          -4.9990   -2.9240   -1.5730 H         1 ****        0.0000 
      8 H          -5.0260   -2.9330    0.0760 H         1 ****        0.0000 
      9 H          -6.6020   -3.1280   -0.8730 H         1 ****        0.0000 
     10 C          -6.3800   -0.7630   -2.1800 C.3       1 ****        0.0000 
     11 H          -5.6780   -1.0480   -2.9720 H         1 ****        0.0000 
     12 H          -7.3600   -1.1990   -2.4150 H         1 ****        0.0000 
     13 H          -6.5670    0.3150   -2.2670 H         1 ****        0.0000 
     14 O          -4.5380   -0.6700   -0.5780 O.3       1 ****        0.0000 
     15 C          -4.2030    0.6250   -0.6660 C.3       1 ****        0.0000 
     16 O          -4.9280    1.5260   -0.9320 O.3       1 ****        0.0000 
     17 N          -2.9210    0.6160   -0.1520 N.3       1 ****        0.0000 
     18 H          -2.4930   -0.2660    0.1050 H         1 ****        0.0000 
     19 C          -2.3510    1.8370    0.4740 C.3       1 ****        0.0000 
     20 C          -1.0550    2.2920   -0.1590 C.3       1 ****        0.0000 
     21 N          -0.2990    1.3030   -0.7810 N.3       1 ****        0.0000 
     22 H          -0.6580    0.3600   -0.7000 H         1 ****        0.0000 
     23 O          -0.7500    3.4740   -0.2290 O.3       1 ****        0.0000 
     24 H          -3.0210    2.7020    0.3890 H         1 ****        0.0000 
     25 C          -2.1800    1.6500    1.9970 C.3       1 ****        0.0000 
     26 H          -3.1640    1.3490    2.3750 H         1 ****        0.0000 
     27 H          -1.9760    2.6260    2.4540 H         1 ****        0.0000 
     28 C          -1.2890    0.5350    2.3800 C.3       1 ****        0.0000 
     29 C          -1.6890   -0.7830    2.3380 C.3       1 ****        0.0000 
     30 C          -0.7250   -1.8060    2.5300 C.3       1 ****        0.0000 
     31 H          -0.9380   -2.8680    2.4460 H         1 ****        0.0000 
     32 H          -2.7160   -1.0290    2.0830 H         1 ****        0.0000 
     33 C           0.0340    0.9050    2.7490 C.3       1 ****        0.0000 
     34 H           0.2370    1.9560    2.9300 H         1 ****        0.0000 
     35 C           0.8930   -0.1540    3.1560 C.3       1 ****        0.0000 
     36 H           1.9150    0.0650    3.4490 H         1 ****        0.0000 
     37 C           0.6150   -1.4430    2.8310 C.3       1 ****        0.0000 
     38 O           1.6220   -2.3540    2.8380 O.3       1 ****        0.0000 
     39 C           2.3420   -2.5260    1.6480 C.3       1 ****        0.0000 
     40 C           3.7390   -2.1040    1.6380 C.3       1 ****        0.0000 
     41 C           4.4010   -1.8930    0.3840 C.3       1 ****        0.0000 
     42 H           5.3980   -1.4780    0.2690 H         1 ****        0.0000 
     43 H           4.2690   -1.9540    2.5740 H         1 ****        0.0000 
     44 C           1.7190   -2.8500    0.4450 C.3       1 ****        0.0000 
     45 H           0.6950   -3.2090    0.4280 H         1 ****        0.0000 
     46 C           2.4170   -2.6140   -0.7490 C.3       1 ****        0.0000 
     47 H           1.9880   -2.8730   -1.7130 H         1 ****        0.0000 
     48 C           3.7070   -2.1240   -0.7960 C.3       1 ****        0.0000 
     49 C           4.2820   -1.6570   -2.0800 C.3       1 ****        0.0000 
     50 O           5.4770   -1.7030   -2.3450 O.3       1 ****        0.0000 
     51 C           3.3420   -1.1150   -3.1800 C.3       1 ****        0.0000 
     52 H           3.8700   -0.7560   -4.0710 H         1 ****        0.0000 
     53 H           2.6180   -1.8480   -3.5560 H         1 ****        0.0000 
     54 N           2.6410    0.0660   -2.6090 N.3       1 ****        0.0000 
     55 H           3.1580    0.9290   -2.4950 H         1 ****        0.0000 
     56 C           1.2970    0.1790   -2.2500 C.3       1 ****        0.0000 
     57 O           0.4790   -0.7300   -2.4370 O.3       1 ****        0.0000 
     58 C           0.9480    1.4940   -1.5020 C.3       1 ****        0.0000 
     59 H           0.7780    2.2000   -2.3230 H         1 ****        0.0000 
     60 C           2.0080    2.0560   -0.5890 C.3       1 ****        0.0000 
     61 C           2.3450    3.4110   -0.7150 C.3       1 ****        0.0000 
     62 H           1.7930    4.1130   -1.3310 H         1 ****        0.0000 
     63 C           3.3710    3.9110    0.0770 C.3       1 ****        0.0000 
     64 H           3.6330    4.9630    0.0250 H         1 ****        0.0000 
     65 C           4.0710    3.0780    1.0500 C.3       1 ****        0.0000 
     66 H           4.7980    3.4960    1.7400 H         1 ****        0.0000 
     67 C           3.5450    1.7630    1.2100 C.3       1 ****        0.0000 
     68 H           3.9030    1.2070    2.0710 H         1 ****        0.0000 
     69 C           2.5450    1.2590    0.4350 C.3       1 ****        0.0000 
     70 H           2.2460    0.2170    0.4840 H         1 ****        0.0000 
@<TRIPOS>BOND
     1    1    2 1    
     2    1    3 1    
     3    1    4 1    
     4    1    5 1    
     5    5    6 1    
     6    5   10 1    
     7    5   14 1    
     8    6    7 1    
     9    6    8 1    
    10    6    9 1    
    11   10   11 1    
    12   10   12 1    
    13   10   13 1    
    14   14   15 1    
    15   15   16 1    
    16   15   17 1    
    17   17   18 1    
    18   17   19 1    
    19   19   20 1    
    20   19   24 1    
    21   19   25 1    
    22   20   21 1    
    23   20   23 1    
    24   21   22 1    
    25   21   58 1    
    26   25   26 1    
    27   25   27 1    
    28   25   28 1    
    29   28   29 1    
    30   28   33 1    
    31   29   30 1    
    32   29   32 1    
    33   30   31 1    
    34   30   37 1    
    35   33   34 1    
    36   33   35 1    
    37   35   36 1    
    38   35   37 1    
    39   37   38 1    
    40   38   39 1    
    41   39   40 1    
    42   39   44 1    
    43   40   41 1    
    44   40   43 1    
    45   41   42 1    
    46   41   48 1    
    47   44   45 1    
    48   44   46 1    
    49   46   47 1    
    50   46   48 1    
    51   48   49 1    
    52   49   50 1    
    53   49   51 1    
    54   51   52 1    
    55   51   53 1    
    56   51   54 1    
    57   54   55 1    
    58   54   56 1    
    59   56   57 1    
    60   56   58 1    
    61   58   59 1    
    62   58   60 1    
    63   60   61 1    
    64   60   69 1    
    65   61   62 1    
    66   61   63 1    
    67   63   64 1    
    68   63   65 1    
    69   65   66 1    
    70   65   67 1    
    71   67   68 1    
    72   67   69 1    
    73   69   70 1    
@<TRIPOS>SUBSTRUCTURE
     1 ****        1 GROUP             0       ****    0 ROOT    
@<TRIPOS>MOLECULE
Cpd2-1000
70   73    1
SMALL
USER_CHARGES


@<TRIPOS>ATOM
      1 C          -6.8696   -0.8692   -0.0072 C.3       1 ****        0.0000 
      2 H          -7.1506    0.1372    0.3273 H         1 ****        0.0000 
      3 H          -7.7084   -1.5739   -0.0067 H         1 ****        0.0000 
      4 H          -6.1038   -1.2766    0.6641 H         1 ****        0.0000 
      5 C          -6.2389   -0.5650   -1.3664 C.3       1 ****        0.0000 
      6 C          -6.1881   -1.9100   -2.1432 C.3       1 ****        0.0000 
      7 H          -5.9167   -2.6658   -1.3970 H         1 ****        0.0000 
      8 H          -7.2114   -2.2046   -2.4082 H         1 ****        0.0000 
      9 H          -5.5254   -1.8332   -3.0146 H         1 ****        0.0000 
     10 C          -7.1357    0.4130   -2.1536 C.3       1 ****        0.0000 
     11 H          -6.9847    1.4656   -1.8826 H         1 ****        0.0000 
     12 H          -6.9198    0.4364   -3.2286 H         1 ****        0.0000 
     13 H          -8.1979    0.2087   -1.9743 H         1 ****        0.0000 
     14 O          -4.8291   -0.1961   -1.2556 O.3       1 ****        0.0000 
     15 C          -4.4836    0.7939   -0.3972 C.3       1 ****        0.0000 
     16 O          -5.2468    1.6078    0.2753 O.3       1 ****        0.0000 
     17 N          -3.1119    0.8783   -0.3376 N.3       1 ****        0.0000 
     18 H          -2.5736    0.1631   -0.8123 H         1 ****        0.0000 
     19 C          -2.4242    1.9869    0.4576 C.3       1 ****        0.0000 
     20 C          -1.0276    2.3489   -0.1451 C.3       1 ****        0.0000 
     21 N          -0.4211    1.3749   -0.8386 N.3       1 ****        0.0000 
     22 H          -0.8155    0.4429   -0.7946 H         1 ****        0.0000 
     23 O          -0.6351    3.5173   -0.0209 O.3       1 ****        0.0000 
     24 H          -3.0574    2.8736    0.3282 H         1 ****        0.0000 
     25 C          -2.3211    1.6454    1.9942 C.3       1 ****        0.0000 
     26 H          -3.3560    1.4156    2.2736 H         1 ****        0.0000 
     27 H          -2.0651    2.5546    2.5532 H         1 ****        0.0000 
     28 C          -1.3846    0.5012    2.3535 C.3       1 ****        0.0000 
     29 C          -1.6987   -0.8376    2.2331 C.3       1 ****        0.0000 
     30 C          -0.6397   -1.7925    2.3940 C.3       1 ****        0.0000 
     31 H          -0.9630   -2.8205    2.2590 H         1 ****        0.0000 
     32 H          -2.6997   -1.1541    1.9530 H         1 ****        0.0000 
     33 C          -0.1058    0.9069    2.8005 C.3       1 ****        0.0000 
     34 H           0.2110    1.9405    2.9014 H         1 ****        0.0000 
     35 C           0.9006   -0.0409    2.9918 C.3       1 ****        0.0000 
     36 H           1.9307    0.2622    3.1523 H         1 ****        0.0000 
     37 C           0.6573   -1.4272    2.7901 C.3       1 ****        0.0000 
     38 O           1.6205   -2.3748    2.8308 O.3       1 ****        0.0000 
     39 C           2.4794   -2.4775    1.6886 C.3       1 ****        0.0000 
     40 C           3.8376   -2.0856    1.6413 C.3       1 ****        0.0000 
     41 C           4.4262   -1.9879    0.4076 C.3       1 ****        0.0000 
     42 H           5.4406   -1.6193    0.2855 H         1 ****        0.0000 
     43 H           4.3545   -1.9364    2.5856 H         1 ****        0.0000 
     44 C           1.8284   -2.8377    0.4881 C.3       1 ****        0.0000 
     45 H           0.7843   -3.1404    0.4784 H         1 ****        0.0000 
     46 C           2.4540   -2.7130   -0.7513 C.3       1 ****        0.0000 
     47 H           1.8211   -2.9386   -1.6041 H         1 ****        0.0000 
     48 C           3.6990   -2.1330   -0.8722 C.3       1 ****        0.0000 
     49 C           4.2388   -1.6999   -2.1490 C.3       1 ****        0.0000 
     50 O           5.4485   -1.7634   -2.3224 O.3       1 ****        0.0000 
     51 C           3.2468   -1.1429   -3.1593 C.3       1 ****        0.0000 
     52 H           3.7566   -0.8067   -4.0711 H         1 ****        0.0000 
     53 H           2.5510   -1.9676   -3.3483 H         1 ****        0.0000 
     54 N           2.6006    0.0955   -2.5852 N.3       1 ****        0.0000 
     55 H           3.2023    0.9105   -2.5740 H         1 ****        0.0000 
     56 C           1.3057    0.1488   -2.1557 C.3       1 ****        0.0000 
     57 O           0.6122   -0.8253   -2.2397 O.3       1 ****        0.0000 
     58 C           0.9193    1.4922   -1.5409 C.3       1 ****        0.0000 
     59 H           0.9433    2.1653   -2.4068 H         1 ****        0.0000 
     60 C           1.9769    1.9797   -0.5791 C.3       1 ****        0.0000 
     61 C           2.5948    3.1936   -0.9461 C.3       1 ****        0.0000 
     62 H           2.2902    3.7724   -1.8116 H         1 ****        0.0000 
     63 C           3.6540    3.6644   -0.2171 C.3       1 ****        0.0000 
     64 H           3.9799    4.6763   -0.4390 H         1 ****        0.0000 
     65 C           4.1965    2.8166    0.8336 C.3       1 ****        0.0000 
     66 H           5.0596    3.1602    1.3982 H         1 ****        0.0000 
     67 C           3.7109    1.5203    1.0431 C.3       1 ****        0.0000 
     68 H           4.1740    0.7804    1.6893 H         1 ****        0.0000 
     69 C           2.5209    1.1955    0.4558 C.3       1 ****        0.0000 
     70 H           2.0571    0.2226    0.5842 H         1 ****        0.0000 
@<TRIPOS>BOND
     1    1    2 1    
     2    1    3 1    
     3    1    4 1    
     4    1    5 1    
     5    5    6 1    
     6    5   10 1    
     7    5   14 1    
     8    6    7 1    
     9    6    8 1    
    10    6    9 1    
    11   10   11 1    
    12   10   12 1    
    13   10   13 1    
    14   14   15 1    
    15   15   16 1    
    16   15   17 1    
    17   17   18 1    
    18   17   19 1    
    19   19   20 1    
    20   19   24 1    
    21   19   25 1    
    22   20   21 1    
    23   20   23 1    
    24   21   22 1    
    25   21   58 1    
    26   25   26 1    
    27   25   27 1    
    28   25   28 1    
    29   28   29 1    
    30   28   33 1    
    31   29   30 1    
    32   29   32 1    
    33   30   31 1    
    34   30   37 1    
    35   33   34 1    
    36   33   35 1    
    37   35   36 1    
    38   35   37 1    
    39   37   38 1    
    40   38   39 1    
    41   39   40 1    
    42   39   44 1    
    43   40   41 1    
    44   40   43 1    
    45   41   42 1    
    46   41   48 1    
    47   44   45 1    
    48   44   46 1    
    49   46   47 1    
    50   46   48 1    
    51   48   49 1    
    52   49   50 1    
    53   49   51 1    
    54   51   52 1    
    55   51   53 1    
    56   51   54 1    
    57   54   55 1    
    58   54   56 1    
    59   56   57 1    
    60   56   58 1    
    61   58   59 1    
    62   58   60 1    
    63   60   61 1    
    64   60   69 1    
    65   61   62 1    
    66   61   63 1    
    67   63   64 1    
    68   63   65 1    
    69   65   66 1    
    70   65   67 1    
    71   67   68 1    
    72   67   69 1    
    73   69   70 1    
@<TRIPOS>SUBSTRUCTURE
     1 ****        1 GROUP             0       ****    0 ROOT    
@<TRIPOS>MOLECULE
Cpd2-1500
70   73    1
SMALL
USER_CHARGES


@<TRIPOS>ATOM
      1 C          -5.6070   -0.2976   -3.1097 C.3       1 ****        0.0000 
      2 H          -6.2265   -0.8307   -3.8393 H         1 ****        0.0000 
      3 H          -6.0462   -0.5591   -2.1392 H         1 ****        0.0000 
      4 H          -5.7300    0.7673   -3.3367 H         1 ****        0.0000 
      5 C          -4.1460   -0.8651   -3.0798 C.3       1 ****        0.0000 
      6 C          -4.2229   -2.3967   -3.1202 C.3       1 ****        0.0000 
      7 H          -4.6346   -2.8113   -2.1931 H         1 ****        0.0000 
      8 H          -4.8767   -2.8142   -3.8955 H         1 ****        0.0000 
      9 H          -3.2191   -2.7983   -3.3093 H         1 ****        0.0000 
     10 C          -3.3223   -0.3417   -4.2389 C.3       1 ****        0.0000 
     11 H          -3.3259    0.7472   -4.3738 H         1 ****        0.0000 
     12 H          -2.3349   -0.6693   -3.8912 H         1 ****        0.0000 
     13 H          -3.5426   -0.9776   -5.1039 H         1 ****        0.0000 
     14 O          -3.5865   -0.5461   -1.8177 O.3       1 ****        0.0000 
     15 C          -3.2705    0.7744   -1.5469 C.3       1 ****        0.0000 
     16 O          -3.5822    1.8053   -2.1541 O.3       1 ****        0.0000 
     17 N          -2.9057    0.7279   -0.2450 N.3       1 ****        0.0000 
     18 H          -2.6414   -0.2107    0.0289 H         1 ****        0.0000 
     19 C          -2.3624    1.9794    0.4919 C.3       1 ****        0.0000 
     20 C          -0.9360    2.3061   -0.1257 C.3       1 ****        0.0000 
     21 N          -0.3238    1.2320   -0.7987 N.3       1 ****        0.0000 
     22 H          -0.7504    0.3203   -0.6775 H         1 ****        0.0000 
     23 O          -0.5005    3.4126   -0.0779 O.3       1 ****        0.0000 
     24 H          -3.0736    2.8030    0.3605 H         1 ****        0.0000 
     25 C          -2.2767    1.7193    2.0365 C.3       1 ****        0.0000 
     26 H          -3.3008    1.4599    2.3316 H         1 ****        0.0000 
     27 H          -1.9028    2.6309    2.5177 H         1 ****        0.0000 
     28 C          -1.3435    0.5992    2.4672 C.3       1 ****        0.0000 
     29 C          -1.6407   -0.7728    2.3642 C.3       1 ****        0.0000 
     30 C          -0.6356   -1.7614    2.4040 C.3       1 ****        0.0000 
     31 H          -0.8745   -2.8047    2.2126 H         1 ****        0.0000 
     32 H          -2.6386   -1.0569    2.0422 H         1 ****        0.0000 
     33 C          -0.0126    0.8841    2.8331 C.3       1 ****        0.0000 
     34 H           0.2144    1.9415    2.9395 H         1 ****        0.0000 
     35 C           0.9774   -0.1456    3.0904 C.3       1 ****        0.0000 
     36 H           2.0447   -0.0292    3.2489 H         1 ****        0.0000 
     37 C           0.6349   -1.4964    2.7622 C.3       1 ****        0.0000 
     38 O           1.5746   -2.5384    2.7858 O.3       1 ****        0.0000 
     39 C           2.3444   -2.5246    1.6590 C.3       1 ****        0.0000 
     40 C           3.5849   -1.9500    1.7106 C.3       1 ****        0.0000 
     41 C           4.2852   -1.8182    0.5043 C.3       1 ****        0.0000 
     42 H           5.2319   -1.2895    0.4471 H         1 ****        0.0000 
     43 H           3.9782   -1.5871    2.6557 H         1 ****        0.0000 
     44 C           1.8162   -2.9954    0.4789 C.3       1 ****        0.0000 
     45 H           0.8482   -3.4861    0.5015 H         1 ****        0.0000 
     46 C           2.4530   -2.7450   -0.7456 C.3       1 ****        0.0000 
     47 H           1.8801   -3.0238   -1.6240 H         1 ****        0.0000 
     48 C           3.6924   -2.1042   -0.7200 C.3       1 ****        0.0000 
     49 C           4.2993   -1.5676   -2.0205 C.3       1 ****        0.0000 
     50 O           5.4951   -1.5150   -2.2159 O.3       1 ****        0.0000 
     51 C           3.2836   -1.1245   -3.2149 C.3       1 ****        0.0000 
     52 H           3.9150   -0.9188   -4.0890 H         1 ****        0.0000 
     53 H           2.7030   -2.0136   -3.4895 H         1 ****        0.0000 
     54 N           2.5103    0.1253   -2.9717 N.3       1 ****        0.0000 
     55 H           2.9991    1.0114   -3.0041 H         1 ****        0.0000 
     56 C           1.2720    0.1302   -2.4264 C.3       1 ****        0.0000 
     57 O           0.5058   -0.8549   -2.3416 O.3       1 ****        0.0000 
     58 C           0.9198    1.4047   -1.6382 C.3       1 ****        0.0000 
     59 H           0.7030    2.2149   -2.3442 H         1 ****        0.0000 
     60 C           2.0995    1.8778   -0.7675 C.3       1 ****        0.0000 
     61 C           2.6369    3.1236   -1.0566 C.3       1 ****        0.0000 
     62 H           2.2112    3.7876   -1.8027 H         1 ****        0.0000 
     63 C           3.7087    3.6499   -0.3173 C.3       1 ****        0.0000 
     64 H           4.1767    4.5677   -0.6612 H         1 ****        0.0000 
     65 C           4.2794    2.9473    0.7636 C.3       1 ****        0.0000 
     66 H           5.0240    3.4061    1.4080 H         1 ****        0.0000 
     67 C           3.7035    1.6954    1.0699 C.3       1 ****        0.0000 
     68 H           4.1275    1.0931    1.8697 H         1 ****        0.0000 
     69 C           2.7004    1.1055    0.2676 C.3       1 ****        0.0000 
     70 H           2.2625    0.1279    0.4483 H         1 ****        0.0000 
@<TRIPOS>BOND
     1    1    2 1    
     2    1    3 1    
     3    1    4 1    
     4    1    5 1    
     5    5    6 1    
     6    5   10 1    
     7    5   14 1    
     8    6    7 1    
     9    6    8 1    
    10    6    9 1    
    11   10   11 1    
    12   10   12 1    
    13   10   13 1    
    14   14   15 1    
    15   15   16 1    
    16   15   17 1    
    17   17   18 1    
    18   17   19 1    
    19   19   20 1    
    20   19   24 1    
    21   19   25 1    
    22   20   21 1    
    23   20   23 1    
    24   21   22 1    
    25   21   58 1    
    26   25   26 1    
    27   25   27 1    
    28   25   28 1    
    29   28   29 1    
    30   28   33 1    
    31   29   30 1    
    32   29   32 1    
    33   30   31 1    
    34   30   37 1    
    35   33   34 1    
    36   33   35 1    
    37   35   36 1    
    38   35   37 1    
    39   37   38 1    
    40   38   39 1    
    41   39   40 1    
    42   39   44 1    
    43   40   41 1    
    44   40   43 1    
    45   41   42 1    
    46   41   48 1    
    47   44   45 1    
    48   44   46 1    
    49   46   47 1    
    50   46   48 1    
    51   48   49 1    
    52   49   50 1    
    53   49   51 1    
    54   51   52 1    
    55   51   53 1    
    56   51   54 1    
    57   54   55 1    
    58   54   56 1    
    59   56   57 1    
    60   56   58 1    
    61   58   59 1    
    62   58   60 1    
    63   60   61 1    
    64   60   69 1    
    65   61   62 1    
    66   61   63 1    
    67   63   64 1    
    68   63   65 1    
    69   65   66 1    
    70   65   67 1    
    71   67   68 1    
    72   67   69 1    
    73   69   70 1    
@<TRIPOS>SUBSTRUCTURE
     1 ****        1 GROUP             0       ****    0 ROOT    
@<TRIPOS>MOLECULE
Cpd2-2000
70   73    1
SMALL
USER_CHARGES


@<TRIPOS>ATOM
      1 C          -6.5084   -1.2228    0.0200 C.3       1 ****        0.0000 
      2 H          -6.7229   -0.5399    0.8517 H         1 ****        0.0000 
      3 H          -7.4006   -1.8598    0.0157 H         1 ****        0.0000 
      4 H          -5.7317   -1.9089    0.3802 H         1 ****        0.0000 
      5 C          -6.0210   -0.6319   -1.2964 C.3       1 ****        0.0000 
      6 C          -5.9291   -1.7786   -2.3429 C.3       1 ****        0.0000 
      7 H          -5.2554   -2.5394   -1.9318 H         1 ****        0.0000 
      8 H          -6.9671   -2.1122   -2.4679 H         1 ****        0.0000 
      9 H          -5.6447   -1.4384   -3.3460 H         1 ****        0.0000 
     10 C          -6.8319    0.5278   -1.8669 C.3       1 ****        0.0000 
     11 H          -6.2524    1.3646   -2.2744 H         1 ****        0.0000 
     12 H          -7.4696    0.1711   -2.6843 H         1 ****        0.0000 
     13 H          -7.5222    0.8968   -1.0982 H         1 ****        0.0000 
     14 O          -4.6515   -0.2269   -1.0822 O.3       1 ****        0.0000 
     15 C          -4.3571    0.8644   -0.3059 C.3       1 ****        0.0000 
     16 O          -5.0909    1.6526    0.3132 O.3       1 ****        0.0000 
     17 N          -2.9797    0.9860   -0.2622 N.3       1 ****        0.0000 
     18 H          -2.4718    0.1696   -0.5824 H         1 ****        0.0000 
     19 C          -2.2831    2.0256    0.5167 C.3       1 ****        0.0000 
     20 C          -0.8702    2.4532   -0.1028 C.3       1 ****        0.0000 
     21 N          -0.3588    1.5757   -1.1164 N.3       1 ****        0.0000 
     22 H          -1.0247    0.9145   -1.5003 H         1 ****        0.0000 
     23 O          -0.3184    3.4246    0.3509 O.3       1 ****        0.0000 
     24 H          -2.9435    2.9003    0.4970 H         1 ****        0.0000 
     25 C          -2.3554    1.5123    2.0126 C.3       1 ****        0.0000 
     26 H          -3.3465    1.1914    2.3552 H         1 ****        0.0000 
     27 H          -2.2250    2.3943    2.6508 H         1 ****        0.0000 
     28 C          -1.2776    0.4393    2.2534 C.3       1 ****        0.0000 
     29 C          -1.5370   -0.8821    1.7967 C.3       1 ****        0.0000 
     30 C          -0.6394   -1.8568    2.0847 C.3       1 ****        0.0000 
     31 H          -0.8781   -2.8786    1.8040 H         1 ****        0.0000 
     32 H          -2.5109   -1.0406    1.3434 H         1 ****        0.0000 
     33 C          -0.1111    0.7884    2.8719 C.3       1 ****        0.0000 
     34 H          -0.0494    1.8454    3.1145 H         1 ****        0.0000 
     35 C           0.8092   -0.2032    3.2013 C.3       1 ****        0.0000 
     36 H           1.7941    0.0674    3.5701 H         1 ****        0.0000 
     37 C           0.5680   -1.4998    2.7867 C.3       1 ****        0.0000 
     38 O           1.6771   -2.3280    2.8914 O.3       1 ****        0.0000 
     39 C           2.4696   -2.4156    1.7501 C.3       1 ****        0.0000 
     40 C           3.4512   -1.4684    1.5414 C.3       1 ****        0.0000 
     41 C           4.0949   -1.4090    0.2635 C.3       1 ****        0.0000 
     42 H           4.7757   -0.5782    0.1010 H         1 ****        0.0000 
     43 H           3.6249   -0.7031    2.2921 H         1 ****        0.0000 
     44 C           2.0261   -3.2164    0.6815 C.3       1 ****        0.0000 
     45 H           1.2552   -3.9558    0.8813 H         1 ****        0.0000 
     46 C           2.5764   -3.0203   -0.5558 C.3       1 ****        0.0000 
     47 H           2.2111   -3.6658   -1.3503 H         1 ****        0.0000 
     48 C           3.5813   -2.0461   -0.8284 C.3       1 ****        0.0000 
     49 C           4.1417   -1.7179   -2.1611 C.3       1 ****        0.0000 
     50 O           5.3484   -1.7351   -2.3364 O.3       1 ****        0.0000 
     51 C           3.0354   -1.3921   -3.2271 C.3       1 ****        0.0000 
     52 H           3.4977   -1.3560   -4.2213 H         1 ****        0.0000 
     53 H           2.2654   -2.1600   -3.0878 H         1 ****        0.0000 
     54 N           2.5505   -0.0031   -2.8104 N.3       1 ****        0.0000 
     55 H           3.1709    0.7658   -3.0324 H         1 ****        0.0000 
     56 C           1.3804    0.1351   -2.1397 C.3       1 ****        0.0000 
     57 O           0.6893   -0.7826   -1.7150 O.3       1 ****        0.0000 
     58 C           0.9687    1.5014   -1.7189 C.3       1 ****        0.0000 
     59 H           0.7695    2.0830   -2.6263 H         1 ****        0.0000 
     60 C           2.0148    2.1202   -0.7748 C.3       1 ****        0.0000 
     61 C           2.9308    3.1053   -1.2516 C.3       1 ****        0.0000 
     62 H           2.9676    3.3324   -2.3121 H         1 ****        0.0000 
     63 C           3.8556    3.6372   -0.3736 C.3       1 ****        0.0000 
     64 H           4.5034    4.4558   -0.6749 H         1 ****        0.0000 
     65 C           3.7851    3.2771    1.0301 C.3       1 ****        0.0000 
     66 H           4.3699    3.8070    1.7755 H         1 ****        0.0000 
     67 C           2.9892    2.2210    1.4617 C.3       1 ****        0.0000 
     68 H           3.0171    1.9252    2.5064 H         1 ****        0.0000 
     69 C           2.1775    1.6379    0.5314 C.3       1 ****        0.0000 
     70 H           1.6054    0.8215    0.9607 H         1 ****        0.0000 
@<TRIPOS>BOND
     1    1    2 1    
     2    1    3 1    
     3    1    4 1    
     4    1    5 1    
     5    5    6 1    
     6    5   10 1    
     7    5   14 1    
     8    6    7 1    
     9    6    8 1    
    10    6    9 1    
    11   10   11 1    
    12   10   12 1    
    13   10   13 1    
    14   14   15 1    
    15   15   16 1    
    16   15   17 1    
    17   17   18 1    
    18   17   19 1    
    19   19   20 1    
    20   19   24 1    
    21   19   25 1    
    22   20   21 1    
    23   20   23 1    
    24   21   22 1    
    25   21   58 1    
    26   25   26 1    
    27   25   27 1    
    28   25   28 1    
    29   28   29 1    
    30   28   33 1    
    31   29   30 1    
    32   29   32 1    
    33   30   31 1    
    34   30   37 1    
    35   33   34 1    
    36   33   35 1    
    37   35   36 1    
    38   35   37 1    
    39   37   38 1    
    40   38   39 1    
    41   39   40 1    
    42   39   44 1    
    43   40   41 1    
    44   40   43 1    
    45   41   42 1    
    46   41   48 1    
    47   44   45 1    
    48   44   46 1    
    49   46   47 1    
    50   46   48 1    
    51   48   49 1    
    52   49   50 1    
    53   49   51 1    
    54   51   52 1    
    55   51   53 1    
    56   51   54 1    
    57   54   55 1    
    58   54   56 1    
    59   56   57 1    
    60   56   58 1    
    61   58   59 1    
    62   58   60 1    
    63   60   61 1    
    64   60   69 1    
    65   61   62 1    
    66   61   63 1    
    67   63   64 1    
    68   63   65 1    
    69   65   66 1    
    70   65   67 1    
    71   67   68 1    
    72   67   69 1    
    73   69   70 1    
@<TRIPOS>SUBSTRUCTURE
     1 ****        1 GROUP             0       ****    0 ROOT    
@<TRIPOS>MOLECULE
Cpd2-2500-MEC
70   73    1
SMALL
USER_CHARGES


@<TRIPOS>ATOM
      1 C          -5.7618   -0.9023   -2.9670 C.3       1 ****        0.0000 
      2 H          -6.1456   -1.3445   -3.8944 H         1 ****        0.0000 
      3 H          -6.4508   -1.0951   -2.1344 H         1 ****        0.0000 
      4 H          -5.7763    0.1731   -3.1802 H         1 ****        0.0000 
      5 C          -4.3547   -1.4536   -2.6968 C.3       1 ****        0.0000 
      6 C          -4.5247   -2.9533   -2.3388 C.3       1 ****        0.0000 
      7 H          -3.5229   -3.3619   -2.1534 H         1 ****        0.0000 
      8 H          -5.2630   -3.0763   -1.5376 H         1 ****        0.0000 
      9 H          -4.8329   -3.3793   -3.3010 H         1 ****        0.0000 
     10 C          -3.4768   -1.3080   -3.9533 C.3       1 ****        0.0000 
     11 H          -2.4232   -1.5565   -3.7783 H         1 ****        0.0000 
     12 H          -3.8948   -1.9089   -4.7720 H         1 ****        0.0000 
     13 H          -3.6008   -0.2530   -4.2246 H         1 ****        0.0000 
     14 O          -3.7240   -0.9631   -1.5014 O.3       1 ****        0.0000 
     15 C          -3.3671    0.3074   -1.3629 C.3       1 ****        0.0000 
     16 O          -3.5870    1.1674   -2.1085 O.3       1 ****        0.0000 
     17 N          -2.8427    0.4532   -0.1011 N.3       1 ****        0.0000 
     18 H          -2.6742   -0.3676    0.4674 H         1 ****        0.0000 
     19 C          -2.3236    1.7115    0.4344 C.3       1 ****        0.0000 
     20 C          -0.9214    2.1548   -0.1703 C.3       1 ****        0.0000 
     21 N          -0.2880    1.2773   -1.0646 N.3       1 ****        0.0000 
     22 H          -0.8285    0.4651   -1.3341 H         1 ****        0.0000 
     23 O          -0.4434    3.2334    0.0636 O.3       1 ****        0.0000 
     24 H          -3.0601    2.4731    0.1524 H         1 ****        0.0000 
     25 C          -2.2929    1.6340    2.0230 C.3       1 ****        0.0000 
     26 H          -3.2796    1.4188    2.4520 H         1 ****        0.0000 
     27 H          -1.9570    2.6119    2.3896 H         1 ****        0.0000 
     28 C          -1.3240    0.5474    2.4095 C.3       1 ****        0.0000 
     29 C          -1.7170   -0.7522    2.6823 C.3       1 ****        0.0000 
     30 C          -0.7614   -1.7483    2.9496 C.3       1 ****        0.0000 
     31 H          -1.1157   -2.7541    3.1580 H         1 ****        0.0000 
     32 H          -2.7786   -0.9613    2.7750 H         1 ****        0.0000 
     33 C           0.0637    0.7959    2.4948 C.3       1 ****        0.0000 
     34 H           0.4789    1.7780    2.2910 H         1 ****        0.0000 
     35 C           1.0029   -0.1495    2.7554 C.3       1 ****        0.0000 
     36 H           2.0325    0.1798    2.8555 H         1 ****        0.0000 
     37 C           0.6109   -1.4688    2.9047 C.3       1 ****        0.0000 
     38 O           1.6581   -2.4211    2.8242 O.3       1 ****        0.0000 
     39 C           2.3425   -2.5850    1.6439 C.3       1 ****        0.0000 
     40 C           3.6122   -2.1315    1.6450 C.3       1 ****        0.0000 
     41 C           4.2529   -1.8591    0.4268 C.3       1 ****        0.0000 
     42 H           5.2600   -1.4526    0.4617 H         1 ****        0.0000 
     43 H           4.1232   -2.0647    2.6020 H         1 ****        0.0000 
     44 C           1.6188   -2.8029    0.4352 C.3       1 ****        0.0000 
     45 H           0.5749   -3.1013    0.4549 H         1 ****        0.0000 
     46 C           2.2340   -2.5088   -0.7855 C.3       1 ****        0.0000 
     47 H           1.6117   -2.7291   -1.6489 H         1 ****        0.0000 
     48 C           3.5470   -2.0231   -0.7819 C.3       1 ****        0.0000 
     49 C           4.2213   -1.5516   -2.0389 C.3       1 ****        0.0000 
     50 O           5.4354   -1.3953   -2.1049 O.3       1 ****        0.0000 
     51 C           3.3306   -1.1649   -3.2322 C.3       1 ****        0.0000 
     52 H           3.9758   -1.0279   -4.1080 H         1 ****        0.0000 
     53 H           2.5990   -1.9382   -3.4956 H         1 ****        0.0000 
     54 N           2.6920    0.1033   -2.8059 N.3       1 ****        0.0000 
     55 H           3.1808    0.9854   -2.7063 H         1 ****        0.0000 
     56 C           1.4383    0.1778   -2.3202 C.3       1 ****        0.0000 
     57 O           0.5970   -0.7254   -2.3595 O.3       1 ****        0.0000 
     58 C           1.0312    1.5310   -1.7375 C.3       1 ****        0.0000 
     59 H           0.8707    2.3032   -2.4998 H         1 ****        0.0000 
     60 C           2.1049    2.0553   -0.7994 C.3       1 ****        0.0000 
     61 C           2.6755    3.3497   -1.0538 C.3       1 ****        0.0000 
     62 H           2.2374    4.0990   -1.7063 H         1 ****        0.0000 
     63 C           3.8015    3.7164   -0.4012 C.3       1 ****        0.0000 
     64 H           4.1567    4.7329   -0.5425 H         1 ****        0.0000 
     65 C           4.3699    2.8837    0.5472 C.3       1 ****        0.0000 
     66 H           5.2350    3.1764    1.1343 H         1 ****        0.0000 
     67 C           3.8176    1.6357    0.8827 C.3       1 ****        0.0000 
     68 H           4.2335    1.0164    1.6718 H         1 ****        0.0000 
     69 C           2.6449    1.2604    0.2557 C.3       1 ****        0.0000 
     70 H           2.2934    0.2409    0.3848 H         1 ****        0.0000 
@<TRIPOS>BOND
     1    1    2 1    
     2    1    3 1    
     3    1    4 1    
     4    1    5 1    
     5    5    6 1    
     6    5   10 1    
     7    5   14 1    
     8    6    7 1    
     9    6    8 1    
    10    6    9 1    
    11   10   11 1    
    12   10   12 1    
    13   10   13 1    
    14   14   15 1    
    15   15   16 1    
    16   15   17 1    
    17   17   18 1    
    18   17   19 1    
    19   19   20 1    
    20   19   24 1    
    21   19   25 1    
    22   20   21 1    
    23   20   23 1    
    24   21   22 1    
    25   21   58 1    
    26   25   26 1    
    27   25   27 1    
    28   25   28 1    
    29   28   29 1    
    30   28   33 1    
    31   29   30 1    
    32   29   32 1    
    33   30   31 1    
    34   30   37 1    
    35   33   34 1    
    36   33   35 1    
    37   35   36 1    
    38   35   37 1    
    39   37   38 1    
    40   38   39 1    
    41   39   40 1    
    42   39   44 1    
    43   40   41 1    
    44   40   43 1    
    45   41   42 1    
    46   41   48 1    
    47   44   45 1    
    48   44   46 1    
    49   46   47 1    
    50   46   48 1    
    51   48   49 1    
    52   49   50 1    
    53   49   51 1    
    54   51   52 1    
    55   51   53 1    
    56   51   54 1    
    57   54   55 1    
    58   54   56 1    
    59   56   57 1    
    60   56   58 1    
    61   58   59 1    
    62   58   60 1    
    63   60   61 1    
    64   60   69 1    
    65   61   62 1    
    66   61   63 1    
    67   63   64 1    
    68   63   65 1    
    69   65   66 1    
    70   65   67 1    
    71   67   68 1    
    72   67   69 1    
    73   69   70 1    
@<TRIPOS>SUBSTRUCTURE
     1 ****        1 GROUP             0       ****    0 ROOT    
@<TRIPOS>MOLECULE
Cpd2-3000
70   73    1
SMALL
USER_CHARGES


@<TRIPOS>ATOM
      1 C          -6.2348   -1.2013   -1.4241 C.3       1 ****        0.0000 
      2 H          -6.5464   -0.1852   -1.6965 H         1 ****        0.0000 
      3 H          -6.9951   -1.8615   -1.8603 H         1 ****        0.0000 
      4 H          -6.3520   -1.2771   -0.3360 H         1 ****        0.0000 
      5 C          -4.8319   -1.6409   -1.8981 C.3       1 ****        0.0000 
      6 C          -4.7531   -3.1624   -1.6666 C.3       1 ****        0.0000 
      7 H          -4.7805   -3.4470   -0.6077 H         1 ****        0.0000 
      8 H          -5.5539   -3.7720   -2.1030 H         1 ****        0.0000 
      9 H          -3.8174   -3.5685   -2.0726 H         1 ****        0.0000 
     10 C          -4.5659   -1.4259   -3.3942 C.3       1 ****        0.0000 
     11 H          -3.5934   -1.8912   -3.6006 H         1 ****        0.0000 
     12 H          -5.2970   -2.0029   -3.9759 H         1 ****        0.0000 
     13 H          -4.5764   -0.3855   -3.7392 H         1 ****        0.0000 
     14 O          -3.8653   -1.1230   -1.1222 O.3       1 ****        0.0000 
     15 C          -3.7608    0.2360   -0.9665 C.3       1 ****        0.0000 
     16 O          -4.1438    1.1312   -1.7009 O.3       1 ****        0.0000 
     17 N          -2.9365    0.3978    0.1093 N.3       1 ****        0.0000 
     18 H          -2.9780   -0.3896    0.7458 H         1 ****        0.0000 
     19 C          -2.4661    1.6964    0.5330 C.3       1 ****        0.0000 
     20 C          -1.1462    2.1597   -0.1559 C.3       1 ****        0.0000 
     21 N          -0.3927    1.1506   -0.7903 N.3       1 ****        0.0000 
     22 H          -0.8405    0.2457   -0.7175 H         1 ****        0.0000 
     23 O          -0.7536    3.2637   -0.0594 O.3       1 ****        0.0000 
     24 H          -3.1796    2.4637    0.2058 H         1 ****        0.0000 
     25 C          -2.3189    1.6877    2.0891 C.3       1 ****        0.0000 
     26 H          -3.2775    1.5092    2.5918 H         1 ****        0.0000 
     27 H          -1.8659    2.6592    2.3227 H         1 ****        0.0000 
     28 C          -1.3495    0.6237    2.4842 C.3       1 ****        0.0000 
     29 C          -1.6771   -0.7155    2.6837 C.3       1 ****        0.0000 
     30 C          -0.7533   -1.6863    2.9108 C.3       1 ****        0.0000 
     31 H          -1.0201   -2.7371    2.8403 H         1 ****        0.0000 
     32 H          -2.7080   -1.0254    2.5382 H         1 ****        0.0000 
     33 C           0.0277    0.9226    2.6416 C.3       1 ****        0.0000 
     34 H           0.3794    1.9481    2.5810 H         1 ****        0.0000 
     35 C           0.9910   -0.0922    2.8865 C.3       1 ****        0.0000 
     36 H           2.0292    0.2090    2.9931 H         1 ****        0.0000 
     37 C           0.5827   -1.4219    2.9250 C.3       1 ****        0.0000 
     38 O           1.6211   -2.3555    2.7413 O.3       1 ****        0.0000 
     39 C           2.3664   -2.4662    1.6430 C.3       1 ****        0.0000 
     40 C           3.7015   -2.1570    1.6155 C.3       1 ****        0.0000 
     41 C           4.4006   -2.0312    0.3923 C.3       1 ****        0.0000 
     42 H           5.4238   -1.6709    0.4521 H         1 ****        0.0000 
     43 H           4.1578   -1.7992    2.5331 H         1 ****        0.0000 
     44 C           1.6701   -2.7572    0.4233 C.3       1 ****        0.0000 
     45 H           0.6094   -2.9842    0.4561 H         1 ****        0.0000 
     46 C           2.3530   -2.5803   -0.7913 C.3       1 ****        0.0000 
     47 H           1.7237   -2.7632   -1.6573 H         1 ****        0.0000 
     48 C           3.6990   -2.1632   -0.8340 C.3       1 ****        0.0000 
     49 C           4.3320   -1.7428   -2.1008 C.3       1 ****        0.0000 
     50 O           5.5192   -1.8434   -2.2444 O.3       1 ****        0.0000 
     51 C           3.3949   -1.0616   -3.1106 C.3       1 ****        0.0000 
     52 H           4.0273   -0.6991   -3.9300 H         1 ****        0.0000 
     53 H           2.6673   -1.7662   -3.5325 H         1 ****        0.0000 
     54 N           2.7803    0.1334   -2.4690 N.3       1 ****        0.0000 
     55 H           3.2968    0.7300   -1.8340 H         1 ****        0.0000 
     56 C           1.4108    0.2746   -2.4211 C.3       1 ****        0.0000 
     57 O           0.6915   -0.4193   -3.1173 O.3       1 ****        0.0000 
     58 C           0.9327    1.4600   -1.5843 C.3       1 ****        0.0000 
     59 H           0.6588    2.1948   -2.3513 H         1 ****        0.0000 
     60 C           1.9372    1.9935   -0.5743 C.3       1 ****        0.0000 
     61 C           2.4212    3.3037   -0.6263 C.3       1 ****        0.0000 
     62 H           1.9095    3.9938   -1.2907 H         1 ****        0.0000 
     63 C           3.5133    3.6452    0.1501 C.3       1 ****        0.0000 
     64 H           3.8039    4.6900    0.0980 H         1 ****        0.0000 
     65 C           4.1318    2.6806    0.9843 C.3       1 ****        0.0000 
     66 H           4.9413    3.0365    1.6152 H         1 ****        0.0000 
     67 C           3.6587    1.3618    1.0424 C.3       1 ****        0.0000 
     68 H           4.1766    0.6805    1.7117 H         1 ****        0.0000 
     69 C           2.6267    1.0517    0.2442 C.3       1 ****        0.0000 
     70 H           2.2089    0.0518    0.3108 H         1 ****        0.0000 
@<TRIPOS>BOND
     1    1    2 1    
     2    1    3 1    
     3    1    4 1    
     4    1    5 1    
     5    5    6 1    
     6    5   10 1    
     7    5   14 1    
     8    6    7 1    
     9    6    8 1    
    10    6    9 1    
    11   10   11 1    
    12   10   12 1    
    13   10   13 1    
    14   14   15 1    
    15   15   16 1    
    16   15   17 1    
    17   17   18 1    
    18   17   19 1    
    19   19   20 1    
    20   19   24 1    
    21   19   25 1    
    22   20   21 1    
    23   20   23 1    
    24   21   22 1    
    25   21   58 1    
    26   25   26 1    
    27   25   27 1    
    28   25   28 1    
    29   28   29 1    
    30   28   33 1    
    31   29   30 1    
    32   29   32 1    
    33   30   31 1    
    34   30   37 1    
    35   33   34 1    
    36   33   35 1    
    37   35   36 1    
    38   35   37 1    
    39   37   38 1    
    40   38   39 1    
    41   39   40 1    
    42   39   44 1    
    43   40   41 1    
    44   40   43 1    
    45   41   42 1    
    46   41   48 1    
    47   44   45 1    
    48   44   46 1    
    49   46   47 1    
    50   46   48 1    
    51   48   49 1    
    52   49   50 1    
    53   49   51 1    
    54   51   52 1    
    55   51   53 1    
    56   51   54 1    
    57   54   55 1    
    58   54   56 1    
    59   56   57 1    
    60   56   58 1    
    61   58   59 1    
    62   58   60 1    
    63   60   61 1    
    64   60   69 1    
    65   61   62 1    
    66   61   63 1    
    67   63   64 1    
    68   63   65 1    
    69   65   66 1    
    70   65   67 1    
    71   67   68 1    
    72   67   69 1    
    73   69   70 1    
@<TRIPOS>SUBSTRUCTURE
     1 ****        1 GROUP             0       ****    0 ROOT    
@<TRIPOS>MOLECULE
Cpd2-3500-MRC
70   73    1
SMALL
USER_CHARGES


@<TRIPOS>ATOM
      1 C          -6.1626    0.1081   -3.3168 C.3       1 ****        0.0000 
      2 H          -6.7247    0.3562   -2.4084 H         1 ****        0.0000 
      3 H          -5.7507    0.9872   -3.8273 H         1 ****        0.0000 
      4 H          -6.7376   -0.4757   -4.0466 H         1 ****        0.0000 
      5 C          -5.0142   -0.8590   -2.9544 C.3       1 ****        0.0000 
      6 C          -5.6827   -2.1755   -2.5660 C.3       1 ****        0.0000 
      7 H          -5.8756   -2.8081   -3.4410 H         1 ****        0.0000 
      8 H          -4.9574   -2.7249   -1.9530 H         1 ****        0.0000 
      9 H          -6.5855   -2.1681   -1.9425 H         1 ****        0.0000 
     10 C          -3.9693   -1.1190   -4.0764 C.3       1 ****        0.0000 
     11 H          -3.2932   -1.9440   -3.8199 H         1 ****        0.0000 
     12 H          -4.3560   -1.3749   -5.0702 H         1 ****        0.0000 
     13 H          -3.3988   -0.2084   -4.2966 H         1 ****        0.0000 
     14 O          -4.2802   -0.4580   -1.7784 O.3       1 ****        0.0000 
     15 C          -3.5385    0.7293   -1.7118 C.3       1 ****        0.0000 
     16 O          -3.2257    1.4793   -2.6105 O.3       1 ****        0.0000 
     17 N          -3.0728    0.8053   -0.3988 N.3       1 ****        0.0000 
     18 H          -3.4412   -0.0115    0.0736 H         1 ****        0.0000 
     19 C          -2.3491    1.8948    0.3487 C.3       1 ****        0.0000 
     20 C          -1.0285    2.3064   -0.2372 C.3       1 ****        0.0000 
     21 N          -0.3180    1.3911   -1.0178 N.3       1 ****        0.0000 
     22 H          -0.6938    0.4514   -0.9775 H         1 ****        0.0000 
     23 O          -0.6133    3.4313   -0.0427 O.3       1 ****        0.0000 
     24 H          -2.8786    2.8551    0.3233 H         1 ****        0.0000 
     25 C          -2.3311    1.5410    1.8678 C.3       1 ****        0.0000 
     26 H          -3.3528    1.1993    2.0714 H         1 ****        0.0000 
     27 H          -2.0305    2.3933    2.4903 H         1 ****        0.0000 
     28 C          -1.2540    0.5413    2.3125 C.3       1 ****        0.0000 
     29 C          -1.5468   -0.8378    2.3892 C.3       1 ****        0.0000 
     30 C          -0.6227   -1.9158    2.6256 C.3       1 ****        0.0000 
     31 H          -0.7958   -2.9886    2.6207 H         1 ****        0.0000 
     32 H          -2.5322   -1.2531    2.1974 H         1 ****        0.0000 
     33 C           0.0528    0.8877    2.6191 C.3       1 ****        0.0000 
     34 H           0.4134    1.9121    2.6198 H         1 ****        0.0000 
     35 C           1.0467   -0.1578    2.8470 C.3       1 ****        0.0000 
     36 H           2.1038    0.0937    2.8714 H         1 ****        0.0000 
     37 C           0.6905   -1.5375    2.8870 C.3       1 ****        0.0000 
     38 O           1.6620   -2.4905    2.9322 O.3       1 ****        0.0000 
     39 C           2.3718   -2.5783    1.7291 C.3       1 ****        0.0000 
     40 C           3.7075   -2.1255    1.6434 C.3       1 ****        0.0000 
     41 C           4.3225   -1.8923    0.4579 C.3       1 ****        0.0000 
     42 H           5.3065   -1.4416    0.3682 H         1 ****        0.0000 
     43 H           4.2279   -1.8288    2.5485 H         1 ****        0.0000 
     44 C           1.6840   -2.8728    0.5096 C.3       1 ****        0.0000 
     45 H           0.6992   -3.3289    0.4642 H         1 ****        0.0000 
     46 C           2.3307   -2.5869   -0.6882 C.3       1 ****        0.0000 
     47 H           1.8226   -2.7276   -1.6381 H         1 ****        0.0000 
     48 C           3.5980   -2.0861   -0.7171 C.3       1 ****        0.0000 
     49 C           4.1371   -1.6083   -2.0575 C.3       1 ****        0.0000 
     50 O           5.3250   -1.6541   -2.2610 O.3       1 ****        0.0000 
     51 C           3.1987   -1.0530   -3.1047 C.3       1 ****        0.0000 
     52 H           3.7435   -0.8472   -4.0340 H         1 ****        0.0000 
     53 H           2.4319   -1.7941   -3.3613 H         1 ****        0.0000 
     54 N           2.6221    0.1963   -2.7347 N.3       1 ****        0.0000 
     55 H           3.1236    1.0767   -2.7499 H         1 ****        0.0000 
     56 C           1.3486    0.2130   -2.2039 C.3       1 ****        0.0000 
     57 O           0.5990   -0.7119   -2.1222 O.3       1 ****        0.0000 
     58 C           0.9834    1.5849   -1.6910 C.3       1 ****        0.0000 
     59 H           0.9199    2.3122   -2.5105 H         1 ****        0.0000 
     60 C           1.9884    2.1608   -0.7780 C.3       1 ****        0.0000 
     61 C           2.4277    3.4750   -0.9813 C.3       1 ****        0.0000 
     62 H           1.9569    4.0724   -1.7554 H         1 ****        0.0000 
     63 C           3.3955    4.0469   -0.1527 C.3       1 ****        0.0000 
     64 H           3.6823    5.0713   -0.3690 H         1 ****        0.0000 
     65 C           4.0658    3.2675    0.8038 C.3       1 ****        0.0000 
     66 H           4.8835    3.5649    1.4532 H         1 ****        0.0000 
     67 C           3.4007    2.0961    1.1841 C.3       1 ****        0.0000 
     68 H           3.6740    1.7213    2.1656 H         1 ****        0.0000 
     69 C           2.5288    1.4048    0.2842 C.3       1 ****        0.0000 
     70 H           2.2077    0.4073    0.5679 H         1 ****        0.0000 
@<TRIPOS>BOND
     1    1    2 1    
     2    1    3 1    
     3    1    4 1    
     4    1    5 1    
     5    5    6 1    
     6    5   10 1    
     7    5   14 1    
     8    6    7 1    
     9    6    8 1    
    10    6    9 1    
    11   10   11 1    
    12   10   12 1    
    13   10   13 1    
    14   14   15 1    
    15   15   16 1    
    16   15   17 1    
    17   17   18 1    
    18   17   19 1    
    19   19   20 1    
    20   19   24 1    
    21   19   25 1    
    22   20   21 1    
    23   20   23 1    
    24   21   22 1    
    25   21   58 1    
    26   25   26 1    
    27   25   27 1    
    28   25   28 1    
    29   28   29 1    
    30   28   33 1    
    31   29   30 1    
    32   29   32 1    
    33   30   31 1    
    34   30   37 1    
    35   33   34 1    
    36   33   35 1    
    37   35   36 1    
    38   35   37 1    
    39   37   38 1    
    40   38   39 1    
    41   39   40 1    
    42   39   44 1    
    43   40   41 1    
    44   40   43 1    
    45   41   42 1    
    46   41   48 1    
    47   44   45 1    
    48   44   46 1    
    49   46   47 1    
    50   46   48 1    
    51   48   49 1    
    52   49   50 1    
    53   49   51 1    
    54   51   52 1    
    55   51   53 1    
    56   51   54 1    
    57   54   55 1    
    58   54   56 1    
    59   56   57 1    
    60   56   58 1    
    61   58   59 1    
    62   58   60 1    
    63   60   61 1    
    64   60   69 1    
    65   61   62 1    
    66   61   63 1    
    67   63   64 1    
    68   63   65 1    
    69   65   66 1    
    70   65   67 1    
    71   67   68 1    
    72   67   69 1    
    73   69   70 1    
@<TRIPOS>SUBSTRUCTURE
     1 ****        1 GROUP             0       ****    0 ROOT    
@<TRIPOS>MOLECULE
Cpd2-4000
70   73    1
SMALL
USER_CHARGES


@<TRIPOS>ATOM
      1 C          -5.3981    0.2063   -3.7304 C.3       1 ****        0.0000 
      2 H          -5.1246    1.2591   -3.5888 H         1 ****        0.0000 
      3 H          -5.9044    0.0484   -4.6888 H         1 ****        0.0000 
      4 H          -6.0436    0.1003   -2.8494 H         1 ****        0.0000 
      5 C          -4.1428   -0.6223   -3.5247 C.3       1 ****        0.0000 
      6 C          -4.5158   -2.0924   -3.6273 C.3       1 ****        0.0000 
      7 H          -4.8772   -2.3946   -4.6185 H         1 ****        0.0000 
      8 H          -3.5680   -2.6140   -3.4469 H         1 ****        0.0000 
      9 H          -5.1865   -2.2337   -2.7700 H         1 ****        0.0000 
     10 C          -3.0032   -0.2905   -4.4997 C.3       1 ****        0.0000 
     11 H          -2.8821    0.7874   -4.6595 H         1 ****        0.0000 
     12 H          -2.0251   -0.5854   -4.1014 H         1 ****        0.0000 
     13 H          -3.1643   -0.7231   -5.4949 H         1 ****        0.0000 
     14 O          -3.5872   -0.4756   -2.2356 O.3       1 ****        0.0000 
     15 C          -3.0768    0.6321   -1.7154 C.3       1 ****        0.0000 
     16 O          -2.9365    1.6788   -2.3744 O.3       1 ****        0.0000 
     17 N          -2.9393    0.5423   -0.3450 N.3       1 ****        0.0000 
     18 H          -3.3520   -0.2253    0.1710 H         1 ****        0.0000 
     19 C          -2.3354    1.7174    0.4711 C.3       1 ****        0.0000 
     20 C          -0.8005    2.0321    0.1421 C.3       1 ****        0.0000 
     21 N          -0.1059    1.1256   -0.7578 N.3       1 ****        0.0000 
     22 H          -0.5440    0.2270   -0.9160 H         1 ****        0.0000 
     23 O          -0.2594    3.0719    0.4950 O.3       1 ****        0.0000 
     24 H          -2.8931    2.6036    0.1465 H         1 ****        0.0000 
     25 C          -2.5876    1.4853    1.9395 C.3       1 ****        0.0000 
     26 H          -3.6256    1.2401    2.1945 H         1 ****        0.0000 
     27 H          -2.3417    2.4638    2.3725 H         1 ****        0.0000 
     28 C          -1.5236    0.4970    2.4868 C.3       1 ****        0.0000 
     29 C          -1.7584   -0.8845    2.3652 C.3       1 ****        0.0000 
     30 C          -0.7155   -1.7663    2.5562 C.3       1 ****        0.0000 
     31 H          -0.8717   -2.8263    2.3848 H         1 ****        0.0000 
     32 H          -2.7071   -1.2995    2.0403 H         1 ****        0.0000 
     33 C          -0.2332    0.9125    2.8393 C.3       1 ****        0.0000 
     34 H           0.0341    1.9626    2.9076 H         1 ****        0.0000 
     35 C           0.8336    0.0161    3.0166 C.3       1 ****        0.0000 
     36 H           1.8424    0.3917    3.1633 H         1 ****        0.0000 
     37 C           0.5885   -1.2792    2.8275 C.3       1 ****        0.0000 
     38 O           1.6507   -2.1209    2.8362 O.3       1 ****        0.0000 
     39 C           2.3304   -2.2398    1.6525 C.3       1 ****        0.0000 
     40 C           3.6754   -1.8216    1.6373 C.3       1 ****        0.0000 
     41 C           4.3221   -1.7151    0.3674 C.3       1 ****        0.0000 
     42 H           5.3391   -1.3388    0.3294 H         1 ****        0.0000 
     43 H           4.1585   -1.5709    2.5765 H         1 ****        0.0000 
     44 C           1.6824   -2.6412    0.4450 C.3       1 ****        0.0000 
     45 H           0.6608   -3.0093    0.4752 H         1 ****        0.0000 
     46 C           2.3188   -2.5226   -0.7644 C.3       1 ****        0.0000 
     47 H           1.9019   -3.0046   -1.6434 H         1 ****        0.0000 
     48 C           3.6394   -2.0295   -0.8303 C.3       1 ****        0.0000 
     49 C           4.2400   -1.8189   -2.1884 C.3       1 ****        0.0000 
     50 O           5.3953   -2.0795   -2.4395 O.3       1 ****        0.0000 
     51 C           3.3449   -1.2118   -3.2756 C.3       1 ****        0.0000 
     52 H           4.0666   -1.0243   -4.0801 H         1 ****        0.0000 
     53 H           2.5207   -1.9357   -3.3086 H         1 ****        0.0000 
     54 N           2.7715    0.0775   -2.8853 N.3       1 ****        0.0000 
     55 H           3.3464    0.9103   -2.9246 H         1 ****        0.0000 
     56 C           1.4735    0.2125   -2.3826 C.3       1 ****        0.0000 
     57 O           0.6551   -0.6445   -2.5251 O.3       1 ****        0.0000 
     58 C           1.0150    1.5066   -1.7378 C.3       1 ****        0.0000 
     59 H           0.5935    2.0945   -2.5628 H         1 ****        0.0000 
     60 C           2.2315    2.2352   -1.0736 C.3       1 ****        0.0000 
     61 C           2.4824    3.5658   -1.3536 C.3       1 ****        0.0000 
     62 H           1.8256    4.0512   -2.0699 H         1 ****        0.0000 
     63 C           3.4385    4.2040   -0.5365 C.3       1 ****        0.0000 
     64 H           3.6087    5.2630   -0.7078 H         1 ****        0.0000 
     65 C           4.0542    3.6163    0.5405 C.3       1 ****        0.0000 
     66 H           4.8438    4.1550    1.0536 H         1 ****        0.0000 
     67 C           3.7557    2.2670    0.8299 C.3       1 ****        0.0000 
     68 H           4.2237    1.8132    1.6985 H         1 ****        0.0000 
     69 C           2.8351    1.6361   -0.0028 C.3       1 ****        0.0000 
     70 H           2.5528    0.5975    0.1472 H         1 ****        0.0000 
@<TRIPOS>BOND
     1    1    2 1    
     2    1    3 1    
     3    1    4 1    
     4    1    5 1    
     5    5    6 1    
     6    5   10 1    
     7    5   14 1    
     8    6    7 1    
     9    6    8 1    
    10    6    9 1    
    11   10   11 1    
    12   10   12 1    
    13   10   13 1    
    14   14   15 1    
    15   15   16 1    
    16   15   17 1    
    17   17   18 1    
    18   17   19 1    
    19   19   20 1    
    20   19   24 1    
    21   19   25 1    
    22   20   21 1    
    23   20   23 1    
    24   21   22 1    
    25   21   58 1    
    26   25   26 1    
    27   25   27 1    
    28   25   28 1    
    29   28   29 1    
    30   28   33 1    
    31   29   30 1    
    32   29   32 1    
    33   30   31 1    
    34   30   37 1    
    35   33   34 1    
    36   33   35 1    
    37   35   36 1    
    38   35   37 1    
    39   37   38 1    
    40   38   39 1    
    41   39   40 1    
    42   39   44 1    
    43   40   41 1    
    44   40   43 1    
    45   41   42 1    
    46   41   48 1    
    47   44   45 1    
    48   44   46 1    
    49   46   47 1    
    50   46   48 1    
    51   48   49 1    
    52   49   50 1    
    53   49   51 1    
    54   51   52 1    
    55   51   53 1    
    56   51   54 1    
    57   54   55 1    
    58   54   56 1    
    59   56   57 1    
    60   56   58 1    
    61   58   59 1    
    62   58   60 1    
    63   60   61 1    
    64   60   69 1    
    65   61   62 1    
    66   61   63 1    
    67   63   64 1    
    68   63   65 1    
    69   65   66 1    
    70   65   67 1    
    71   67   68 1    
    72   67   69 1    
    73   69   70 1    
@<TRIPOS>SUBSTRUCTURE
     1 ****        1 GROUP             0       ****    0 ROOT    
@<TRIPOS>MOLECULE
Cpd2-4500
70   73    1
SMALL
USER_CHARGES


@<TRIPOS>ATOM
      1 C          -6.6379   -1.1184   -1.5887 C.3       1 ****        0.0000 
      2 H          -7.1987   -0.3560   -1.0338 H         1 ****        0.0000 
      3 H          -7.1874   -1.7239   -2.3193 H         1 ****        0.0000 
      4 H          -6.1821   -1.7843   -0.8443 H         1 ****        0.0000 
      5 C          -5.5496   -0.3306   -2.3933 C.3       1 ****        0.0000 
      6 C          -4.9725   -1.1341   -3.5410 C.3       1 ****        0.0000 
      7 H          -5.7166   -1.3828   -4.3077 H         1 ****        0.0000 
      8 H          -4.1075   -0.5800   -3.9235 H         1 ****        0.0000 
      9 H          -4.5227   -2.0772   -3.2125 H         1 ****        0.0000 
     10 C          -5.9951    0.9676   -3.0282 C.3       1 ****        0.0000 
     11 H          -6.6253    0.8338   -3.9169 H         1 ****        0.0000 
     12 H          -6.6274    1.4782   -2.2913 H         1 ****        0.0000 
     13 H          -5.1446    1.6283   -3.2339 H         1 ****        0.0000 
     14 O          -4.4160   -0.1275   -1.5830 O.3       1 ****        0.0000 
     15 C          -4.3277    0.8172   -0.6550 C.3       1 ****        0.0000 
     16 O          -5.2394    1.4134   -0.0917 O.3       1 ****        0.0000 
     17 N          -3.0010    0.9174   -0.4218 N.3       1 ****        0.0000 
     18 H          -2.5197    0.3315   -1.0936 H         1 ****        0.0000 
     19 C          -2.3070    1.8619    0.4547 C.3       1 ****        0.0000 
     20 C          -0.9032    2.2136   -0.1024 C.3       1 ****        0.0000 
     21 N          -0.2620    1.2227   -0.8428 N.3       1 ****        0.0000 
     22 H          -0.7812    0.3548   -0.9012 H         1 ****        0.0000 
     23 O          -0.3876    3.3273   -0.0084 O.3       1 ****        0.0000 
     24 H          -2.8814    2.7956    0.5181 H         1 ****        0.0000 
     25 C          -2.3242    1.5601    1.9431 C.3       1 ****        0.0000 
     26 H          -3.3084    1.2696    2.3336 H         1 ****        0.0000 
     27 H          -2.1364    2.4680    2.5282 H         1 ****        0.0000 
     28 C          -1.3552    0.5641    2.4662 C.3       1 ****        0.0000 
     29 C          -1.6893   -0.8313    2.4753 C.3       1 ****        0.0000 
     30 C          -0.7477   -1.7988    2.8715 C.3       1 ****        0.0000 
     31 H          -1.0515   -2.8377    2.9619 H         1 ****        0.0000 
     32 H          -2.7035   -1.1705    2.2839 H         1 ****        0.0000 
     33 C          -0.0471    0.9221    2.7074 C.3       1 ****        0.0000 
     34 H           0.2379    1.9649    2.5990 H         1 ****        0.0000 
     35 C           0.9376   -0.0855    2.9677 C.3       1 ****        0.0000 
     36 H           1.9958    0.1602    2.9863 H         1 ****        0.0000 
     37 C           0.6023   -1.4287    2.8383 C.3       1 ****        0.0000 
     38 O           1.5978   -2.3614    2.7981 O.3       1 ****        0.0000 
     39 C           2.3160   -2.4572    1.6362 C.3       1 ****        0.0000 
     40 C           3.6828   -2.1121    1.6268 C.3       1 ****        0.0000 
     41 C           4.3137   -1.8690    0.3985 C.3       1 ****        0.0000 
     42 H           5.2324   -1.2876    0.3974 H         1 ****        0.0000 
     43 H           4.1660   -1.8401    2.5606 H         1 ****        0.0000 
     44 C           1.6381   -2.8650    0.4783 C.3       1 ****        0.0000 
     45 H           0.6504   -3.3101    0.5553 H         1 ****        0.0000 
     46 C           2.3664   -2.7400   -0.7336 C.3       1 ****        0.0000 
     47 H           1.8991   -2.9919   -1.6800 H         1 ****        0.0000 
     48 C           3.6291   -2.1037   -0.7957 C.3       1 ****        0.0000 
     49 C           4.2657   -1.6069   -2.0863 C.3       1 ****        0.0000 
     50 O           5.4223   -1.2325   -2.2709 O.3       1 ****        0.0000 
     51 C           3.3052   -1.2693   -3.1650 C.3       1 ****        0.0000 
     52 H           3.9228   -1.1119   -4.0602 H         1 ****        0.0000 
     53 H           2.5644   -2.0713   -3.2588 H         1 ****        0.0000 
     54 N           2.7042    0.0048   -2.7569 N.3       1 ****        0.0000 
     55 H           3.3027    0.7381   -2.3991 H         1 ****        0.0000 
     56 C           1.3722    0.1756   -2.3746 C.3       1 ****        0.0000 
     57 O           0.5351   -0.6331   -2.5859 O.3       1 ****        0.0000 
     58 C           0.9520    1.4212   -1.6488 C.3       1 ****        0.0000 
     59 H           0.6038    2.0875   -2.4480 H         1 ****        0.0000 
     60 C           1.9859    2.2060   -0.8638 C.3       1 ****        0.0000 
     61 C           2.1556    3.5557   -1.1995 C.3       1 ****        0.0000 
     62 H           1.4177    4.1246   -1.7574 H         1 ****        0.0000 
     63 C           3.1554    4.2711   -0.5129 C.3       1 ****        0.0000 
     64 H           3.2341    5.3226   -0.7721 H         1 ****        0.0000 
     65 C           4.0798    3.6660    0.3293 C.3       1 ****        0.0000 
     66 H           4.8001    4.2492    0.8941 H         1 ****        0.0000 
     67 C           3.8802    2.3345    0.6461 C.3       1 ****        0.0000 
     68 H           4.3795    1.8172    1.4610 H         1 ****        0.0000 
     69 C           2.8273    1.5723    0.0565 C.3       1 ****        0.0000 
     70 H           2.7116    0.5055    0.2289 H         1 ****        0.0000 
@<TRIPOS>BOND
     1    1    2 1    
     2    1    3 1    
     3    1    4 1    
     4    1    5 1    
     5    5    6 1    
     6    5   10 1    
     7    5   14 1    
     8    6    7 1    
     9    6    8 1    
    10    6    9 1    
    11   10   11 1    
    12   10   12 1    
    13   10   13 1    
    14   14   15 1    
    15   15   16 1    
    16   15   17 1    
    17   17   18 1    
    18   17   19 1    
    19   19   20 1    
    20   19   24 1    
    21   19   25 1    
    22   20   21 1    
    23   20   23 1    
    24   21   22 1    
    25   21   58 1    
    26   25   26 1    
    27   25   27 1    
    28   25   28 1    
    29   28   29 1    
    30   28   33 1    
    31   29   30 1    
    32   29   32 1    
    33   30   31 1    
    34   30   37 1    
    35   33   34 1    
    36   33   35 1    
    37   35   36 1    
    38   35   37 1    
    39   37   38 1    
    40   38   39 1    
    41   39   40 1    
    42   39   44 1    
    43   40   41 1    
    44   40   43 1    
    45   41   42 1    
    46   41   48 1    
    47   44   45 1    
    48   44   46 1    
    49   46   47 1    
    50   46   48 1    
    51   48   49 1    
    52   49   50 1    
    53   49   51 1    
    54   51   52 1    
    55   51   53 1    
    56   51   54 1    
    57   54   55 1    
    58   54   56 1    
    59   56   57 1    
    60   56   58 1    
    61   58   59 1    
    62   58   60 1    
    63   60   61 1    
    64   60   69 1    
    65   61   62 1    
    66   61   63 1    
    67   63   64 1    
    68   63   65 1    
    69   65   66 1    
    70   65   67 1    
    71   67   68 1    
    72   67   69 1    
    73   69   70 1    
@<TRIPOS>SUBSTRUCTURE
     1 ****        1 GROUP             0       ****    0 ROOT    
@<TRIPOS>MOLECULE
Cpd2-5000
70   73    1
SMALL
USER_CHARGES


@<TRIPOS>ATOM
      1 C          -6.1755   -1.8561    1.3467 C.3       1 ****        0.0000 
      2 H          -6.7494   -1.0525    1.8259 H         1 ****        0.0000 
      3 H          -6.7727   -2.7637    1.4974 H         1 ****        0.0000 
      4 H          -5.2507   -2.0410    1.9059 H         1 ****        0.0000 
      5 C          -5.8369   -1.5943   -0.1105 C.3       1 ****        0.0000 
      6 C          -5.6483   -2.9662   -0.7922 C.3       1 ****        0.0000 
      7 H          -5.6802   -2.9747   -1.8880 H         1 ****        0.0000 
      8 H          -4.5807   -3.1823   -0.6625 H         1 ****        0.0000 
      9 H          -6.2278   -3.8172   -0.4143 H         1 ****        0.0000 
     10 C          -6.8619   -0.7145   -0.8156 C.3       1 ****        0.0000 
     11 H          -7.0071    0.3078   -0.4449 H         1 ****        0.0000 
     12 H          -6.5437   -0.6353   -1.8632 H         1 ****        0.0000 
     13 H          -7.8138   -1.2607   -0.8195 H         1 ****        0.0000 
     14 O          -4.6169   -0.8971   -0.1597 O.3       1 ****        0.0000 
     15 C          -4.3663    0.2963    0.3395 C.3       1 ****        0.0000 
     16 O          -5.0842    1.1296    0.8817 O.3       1 ****        0.0000 
     17 N          -3.0297    0.5339    0.0732 N.3       1 ****        0.0000 
     18 H          -2.4567   -0.2508   -0.2094 H         1 ****        0.0000 
     19 C          -2.3627    1.7946    0.5094 C.3       1 ****        0.0000 
     20 C          -1.0811    2.2436   -0.2525 C.3       1 ****        0.0000 
     21 N          -0.3660    1.1816   -0.7976 N.3       1 ****        0.0000 
     22 H          -0.8022    0.2668   -0.8234 H         1 ****        0.0000 
     23 O          -0.8278    3.4314   -0.2748 O.3       1 ****        0.0000 
     24 H          -3.0984    2.5898    0.3317 H         1 ****        0.0000 
     25 C          -2.0984    1.7141    2.0154 C.3       1 ****        0.0000 
     26 H          -3.0547    1.5592    2.5301 H         1 ****        0.0000 
     27 H          -1.6791    2.7205    2.1383 H         1 ****        0.0000 
     28 C          -1.1638    0.6550    2.4494 C.3       1 ****        0.0000 
     29 C          -1.6148   -0.6949    2.3457 C.3       1 ****        0.0000 
     30 C          -0.6191   -1.6733    2.5423 C.3       1 ****        0.0000 
     31 H          -0.8118   -2.7185    2.3199 H         1 ****        0.0000 
     32 H          -2.5514   -0.9825    1.8759 H         1 ****        0.0000 
     33 C           0.1783    0.9360    2.7211 C.3       1 ****        0.0000 
     34 H           0.4994    1.9713    2.7932 H         1 ****        0.0000 
     35 C           1.1123   -0.0656    2.9098 C.3       1 ****        0.0000 
     36 H           2.1670    0.1437    3.0620 H         1 ****        0.0000 
     37 C           0.7225   -1.3965    2.8051 C.3       1 ****        0.0000 
     38 O           1.5763   -2.4840    2.8313 O.3       1 ****        0.0000 
     39 C           2.2523   -2.6848    1.6730 C.3       1 ****        0.0000 
     40 C           3.6611   -2.3765    1.6668 C.3       1 ****        0.0000 
     41 C           4.3558   -2.1501    0.4405 C.3       1 ****        0.0000 
     42 H           5.3244   -1.6847    0.6003 H         1 ****        0.0000 
     43 H           4.0384   -2.1556    2.6618 H         1 ****        0.0000 
     44 C           1.5788   -2.8716    0.4294 C.3       1 ****        0.0000 
     45 H           0.5197   -3.1087    0.3828 H         1 ****        0.0000 
     46 C           2.3331   -2.7734   -0.7845 C.3       1 ****        0.0000 
     47 H           1.8496   -3.0265   -1.7229 H         1 ****        0.0000 
     48 C           3.6097   -2.1495   -0.7531 C.3       1 ****        0.0000 
     49 C           4.2599   -1.4939   -1.9681 C.3       1 ****        0.0000 
     50 O           5.4022   -1.0673   -2.0105 O.3       1 ****        0.0000 
     51 C           3.3424   -1.0616   -3.1067 C.3       1 ****        0.0000 
     52 H           3.9050   -0.7959   -4.0091 H         1 ****        0.0000 
     53 H           2.6150   -1.8174   -3.4253 H         1 ****        0.0000 
     54 N           2.5903    0.1157   -2.7284 N.3       1 ****        0.0000 
     55 H           3.0817    0.9961   -2.6316 H         1 ****        0.0000 
     56 C           1.3130    0.1658   -2.3209 C.3       1 ****        0.0000 
     57 O           0.5689   -0.8147   -2.5187 O.3       1 ****        0.0000 
     58 C           0.8937    1.3991   -1.5325 C.3       1 ****        0.0000 
     59 H           0.6297    2.0984   -2.3364 H         1 ****        0.0000 
     60 C           2.0181    1.9563   -0.6046 C.3       1 ****        0.0000 
     61 C           2.1919    3.3681   -0.5168 C.3       1 ****        0.0000 
     62 H           1.5852    4.0555   -1.0978 H         1 ****        0.0000 
     63 C           3.2513    3.9304    0.2262 C.3       1 ****        0.0000 
     64 H           3.4356    4.9949    0.1034 H         1 ****        0.0000 
     65 C           4.1159    3.1092    0.9871 C.3       1 ****        0.0000 
     66 H           4.9039    3.5970    1.5538 H         1 ****        0.0000 
     67 C           3.9030    1.7212    1.0571 C.3       1 ****        0.0000 
     68 H           4.5606    1.1982    1.7455 H         1 ****        0.0000 
     69 C           2.7914    1.1412    0.3575 C.3       1 ****        0.0000 
     70 H           2.5953    0.0743    0.3086 H         1 ****        0.0000 
@<TRIPOS>BOND
     1    1    2 1    
     2    1    3 1    
     3    1    4 1    
     4    1    5 1    
     5    5    6 1    
     6    5   10 1    
     7    5   14 1    
     8    6    7 1    
     9    6    8 1    
    10    6    9 1    
    11   10   11 1    
    12   10   12 1    
    13   10   13 1    
    14   14   15 1    
    15   15   16 1    
    16   15   17 1    
    17   17   18 1    
    18   17   19 1    
    19   19   20 1    
    20   19   24 1    
    21   19   25 1    
    22   20   21 1    
    23   20   23 1    
    24   21   22 1    
    25   21   58 1    
    26   25   26 1    
    27   25   27 1    
    28   25   28 1    
    29   28   29 1    
    30   28   33 1    
    31   29   30 1    
    32   29   32 1    
    33   30   31 1    
    34   30   37 1    
    35   33   34 1    
    36   33   35 1    
    37   35   36 1    
    38   35   37 1    
    39   37   38 1    
    40   38   39 1    
    41   39   40 1    
    42   39   44 1    
    43   40   41 1    
    44   40   43 1    
    45   41   42 1    
    46   41   48 1    
    47   44   45 1    
    48   44   46 1    
    49   46   47 1    
    50   46   48 1    
    51   48   49 1    
    52   49   50 1    
    53   49   51 1    
    54   51   52 1    
    55   51   53 1    
    56   51   54 1    
    57   54   55 1    
    58   54   56 1    
    59   56   57 1    
    60   56   58 1    
    61   58   59 1    
    62   58   60 1    
    63   60   61 1    
    64   60   69 1    
    65   61   62 1    
    66   61   63 1    
    67   63   64 1    
    68   63   65 1    
    69   65   66 1    
    70   65   67 1    
    71   67   68 1    
    72   67   69 1    
    73   69   70 1    
@<TRIPOS>SUBSTRUCTURE
     1 ****        1 GROUP             0       ****    0 ROOT    
