@<TRIPOS>MOLECULE
Cpd2-1
70   73    1
SMALL
USER_CHARGES


@<TRIPOS>ATOM
      1 N          -3.1033    2.0932   -1.1426 N.3       1 ****        0.0000 
      2 O          -6.2424    1.2834   -2.1559 O.3       1 ****        0.0000 
      3 C          -1.0041   -0.6396   -4.4624 C.3       1 ****        0.0000 
      4 N          -0.2542    0.5834    0.4316 N.3       1 ****        0.0000 
      5 O           1.7919    0.2530   -0.4999 O.3       1 ****        0.0000 
      6 C          -1.7171   -1.1302   -3.3666 C.3       1 ****        0.0000 
      7 N           0.5866   -0.3606    2.8590 N.3       1 ****        0.0000 
      8 O          -2.4392    1.9280    1.0219 O.3       1 ****        0.0000 
      9 C          -0.2085    0.4957   -4.3184 C.3       1 ****        0.0000 
     10 O           1.4086    1.6735    3.4740 O.3       1 ****        0.0000 
     11 C          -1.6305   -0.4879   -2.1340 C.3       1 ****        0.0000 
     12 O          -3.3617   -3.9130    0.2397 O.3       1 ****        0.0000 
     13 C          -0.1277    1.1402   -3.0834 C.3       1 ****        0.0000 
     14 C           0.1017   -2.8198   -0.1741 C.3       1 ****        0.0000 
     15 C          -0.2706   -3.3566    2.1432 C.3       1 ****        0.0000 
     16 C          -4.3800   -0.3945    0.4194 C.3       1 ****        0.0000 
     17 C          -5.1303   -1.3394   -1.6745 C.3       1 ****        0.0000 
     18 C          -1.1671   -3.2903   -0.4852 C.3       1 ****        0.0000 
     19 C          -1.5606   -3.8044    1.8458 C.3       1 ****        0.0000 
     20 C          -3.8943   -1.6337    0.8075 C.3       1 ****        0.0000 
     21 C          -4.6273   -2.5846   -1.3020 C.3       1 ****        0.0000 
     22 C           1.7984   -2.0321    1.5082 C.3       1 ****        0.0000 
     23 C          -4.5125    2.3231   -0.8742 C.3       1 ****        0.0000 
     24 C           0.5441   -2.7917    1.1545 C.3       1 ****        0.0000 
     25 C          -4.9718   -0.2289   -0.8389 C.3       1 ****        0.0000 
     26 C          -0.8342    0.6513   -1.9856 C.3       1 ****        0.0000 
     27 C          -2.0145   -3.7034    0.5386 C.3       1 ****        0.0000 
     28 C          -3.9759   -2.7123   -0.0765 C.3       1 ****        0.0000 
     29 C          -5.3531    1.1230   -1.3418 C.3       1 ****        0.0000 
     30 C           1.0233    0.1461    0.4512 C.3       1 ****        0.0000 
     31 C          -2.1977    1.8293   -0.1769 C.3       1 ****        0.0000 
     32 C           0.6306    0.7520    3.6474 C.3       1 ****        0.0000 
     33 C           1.4972   -0.5333    1.7489 C.3       1 ****        0.0000 
     34 C          -0.7953    1.3805   -0.6558 C.3       1 ****        0.0000 
     35 H           2.4334   -0.0287    2.0038 H         1 ****        0.0000 
     36 H          -0.1890    2.2900   -0.7747 H         1 ****        0.0000 
     37 H          -1.0720   -1.1383   -5.4235 H         1 ****        0.0000 
     38 H          -2.3502   -2.0070   -3.4760 H         1 ****        0.0000 
     39 H           0.3512    0.8801   -5.1653 H         1 ****        0.0000 
     40 H          -2.1904   -0.8630   -1.2800 H         1 ****        0.0000 
     41 H           0.5001    2.0201   -2.9673 H         1 ****        0.0000 
     42 H           0.7349   -2.4181   -0.9619 H         1 ****        0.0000 
     43 H           0.0849   -3.4068    3.1696 H         1 ****        0.0000 
     44 H          -4.2678    0.4488    1.0937 H         1 ****        0.0000 
     45 H          -5.5990   -1.2067   -2.6448 H         1 ****        0.0000 
     46 H          -1.5356   -3.2696   -1.5060 H         1 ****        0.0000 
     47 H          -2.2254   -4.1687    2.6226 H         1 ****        0.0000 
     48 H          -3.4071   -1.7588    1.7686 H         1 ****        0.0000 
     49 H          -4.6881   -3.4406   -1.9653 H         1 ****        0.0000 
     50 H           2.2602   -2.4298    2.4159 H         1 ****        0.0000 
     51 H           2.5281   -2.0916    0.6968 H         1 ****        0.0000 
     52 H          -4.8678    3.2046   -1.4095 H         1 ****        0.0000 
     53 H          -4.6266    2.4883    0.2008 H         1 ****        0.0000 
     54 H          -2.8302    1.9244   -2.1034 H         1 ****        0.0000 
     55 H          -0.7841    0.5971    1.2957 H         1 ****        0.0000 
     56 H          -0.1065   -1.0676    3.0680 H         1 ****        0.0000 
     57 O          -0.2998    0.6692    4.6119 O.3       1 ****        0.0000 
     58 C          -0.5045    1.7720    5.5515 C.3       1 ****        0.0000 
     59 C          -1.6540    1.2658    6.4150 C.3       1 ****        0.0000 
     60 H          -2.5406    1.0830    5.8023 H         1 ****        0.0000 
     61 H          -1.3730    0.3353    6.9173 H         1 ****        0.0000 
     62 H          -1.9015    2.0121    7.1745 H         1 ****        0.0000 
     63 C          -0.9156    3.0334    4.7979 C.3       1 ****        0.0000 
     64 H          -1.2207    3.7961    5.5200 H         1 ****        0.0000 
     65 H          -0.0925    3.4262    4.1994 H         1 ****        0.0000 
     66 H          -1.7646    2.8204    4.1420 H         1 ****        0.0000 
     67 C           0.7498    1.9795    6.3953 C.3       1 ****        0.0000 
     68 H           1.0470    1.0365    6.8646 H         1 ****        0.0000 
     69 H           1.5757    2.3578    5.7919 H         1 ****        0.0000 
     70 H           0.5309    2.7025    7.1870 H         1 ****        0.0000 
@<TRIPOS>BOND
     1    1   23 1    
     2    1   31 1    
     3    1   54 1    
     4    2   29 1    
     5    3    6 1    
     6    3    9 1    
     7    3   37 1    
     8    4   30 1    
     9    4   34 1    
    10    4   55 1    
    11    5   30 1    
    12    6   11 1    
    13    6   38 1    
    14    7   32 1    
    15    7   33 1    
    16    7   56 1    
    17    8   31 1    
    18    9   13 1    
    19    9   39 1    
    20   10   32 1    
    21   11   26 1    
    22   11   40 1    
    23   12   27 1    
    24   12   28 1    
    25   13   26 1    
    26   13   41 1    
    27   14   18 1    
    28   14   24 1    
    29   14   42 1    
    30   15   19 1    
    31   15   24 1    
    32   15   43 1    
    33   16   20 1    
    34   16   25 1    
    35   16   44 1    
    36   17   21 1    
    37   17   25 1    
    38   17   45 1    
    39   18   27 1    
    40   18   46 1    
    41   19   27 1    
    42   19   47 1    
    43   20   28 1    
    44   20   48 1    
    45   21   28 1    
    46   21   49 1    
    47   22   24 1    
    48   22   33 1    
    49   22   50 1    
    50   22   51 1    
    51   23   29 1    
    52   23   52 1    
    53   23   53 1    
    54   25   29 1    
    55   26   34 1    
    56   30   33 1    
    57   31   34 1    
    58   32   57 1    
    59   33   35 1    
    60   34   36 1    
    61   57   58 1    
    62   58   59 1    
    63   58   63 1    
    64   58   67 1    
    65   59   60 1    
    66   59   61 1    
    67   59   62 1    
    68   63   64 1    
    69   63   65 1    
    70   63   66 1    
    71   67   68 1    
    72   67   69 1    
    73   67   70 1    
@<TRIPOS>SUBSTRUCTURE
     1 ****        1 GROUP             0       ****    0 ROOT    
@<TRIPOS>MOLECULE
Cpd2-2
70   73    1
SMALL
USER_CHARGES


@<TRIPOS>ATOM
      1 N          -3.0758    2.0420   -1.2130 N.3       1 ****        0.0000 
      2 O          -6.2847    1.2605   -2.1129 O.3       1 ****        0.0000 
      3 C          -0.8190   -0.6560   -4.4732 C.3       1 ****        0.0000 
      4 N          -0.2727    0.5651    0.4425 N.3       1 ****        0.0000 
      5 O           1.8423    0.4535   -0.3506 O.3       1 ****        0.0000 
      6 C          -1.6057   -1.1237   -3.4178 C.3       1 ****        0.0000 
      7 N           0.8222   -0.3367    3.0440 N.3       1 ****        0.0000 
      8 O          -2.4003    2.0957    0.9520 O.3       1 ****        0.0000 
      9 C          -0.0046    0.4587   -4.2881 C.3       1 ****        0.0000 
     10 O          -1.4093   -0.6938    2.6086 O.3       1 ****        0.0000 
     11 C          -1.5740   -0.4777   -2.1851 C.3       1 ****        0.0000 
     12 O          -3.3868   -3.9324    0.2602 O.3       1 ****        0.0000 
     13 C           0.0219    1.1078   -3.0522 C.3       1 ****        0.0000 
     14 C           0.0518   -2.7965   -0.1933 C.3       1 ****        0.0000 
     15 C          -0.2492   -3.4442    2.1045 C.3       1 ****        0.0000 
     16 C          -5.2205   -1.3711   -1.6093 C.3       1 ****        0.0000 
     17 C          -4.2886   -0.3809    0.3899 C.3       1 ****        0.0000 
     18 C          -1.2169   -3.2709   -0.4925 C.3       1 ****        0.0000 
     19 C          -1.5396   -3.8966    1.8224 C.3       1 ****        0.0000 
     20 C          -4.7270   -2.6188   -1.2304 C.3       1 ****        0.0000 
     21 C          -3.8097   -1.6205    0.7851 C.3       1 ****        0.0000 
     22 C           1.7778   -2.0598    1.4669 C.3       1 ****        0.0000 
     23 C          -4.4786    2.3072   -0.9519 C.3       1 ****        0.0000 
     24 C           0.5251   -2.8199    1.1243 C.3       1 ****        0.0000 
     25 C          -4.9717   -0.2390   -0.8262 C.3       1 ****        0.0000 
     26 C          -0.7608    0.6445   -1.9949 C.3       1 ****        0.0000 
     27 C          -2.0315   -3.7372    0.5348 C.3       1 ****        0.0000 
     28 C          -3.9910   -2.7253   -0.0522 C.3       1 ****        0.0000 
     29 C          -5.3534    1.1055   -1.3456 C.3       1 ****        0.0000 
     30 C           1.0163    0.2019    0.5267 C.3       1 ****        0.0000 
     31 C          -2.1616    1.8745   -0.2296 C.3       1 ****        0.0000 
     32 C          -0.4755   -0.5545    3.3875 C.3       1 ****        0.0000 
     33 C           1.5145   -0.5605    1.7722 C.3       1 ****        0.0000 
     34 C          -0.7633    1.3727   -0.6620 C.3       1 ****        0.0000 
     35 H           2.4979   -0.1108    1.9290 H         1 ****        0.0000 
     36 H          -0.1215    2.2597   -0.7545 H         1 ****        0.0000 
     37 H          -0.8443   -1.1596   -5.4345 H         1 ****        0.0000 
     38 H          -2.2514   -1.9862   -3.5595 H         1 ****        0.0000 
     39 H           0.6139    0.8240   -5.1016 H         1 ****        0.0000 
     40 H          -2.1888   -0.8388   -1.3632 H         1 ****        0.0000 
     41 H           0.6658    1.9702   -2.9026 H         1 ****        0.0000 
     42 H           0.6576   -2.3507   -0.9797 H         1 ****        0.0000 
     43 H           0.1234   -3.5061    3.1249 H         1 ****        0.0000 
     44 H          -5.7554   -1.2566   -2.5470 H         1 ****        0.0000 
     45 H          -4.0974    0.4790    1.0246 H         1 ****        0.0000 
     46 H          -1.6152   -3.2093   -1.5006 H         1 ****        0.0000 
     47 H          -2.1828   -4.2947    2.6018 H         1 ****        0.0000 
     48 H          -4.8608   -3.4940   -1.8579 H         1 ****        0.0000 
     49 H          -3.2290   -1.7132    1.6957 H         1 ****        0.0000 
     50 H           2.2695   -2.4860    2.3465 H         1 ****        0.0000 
     51 H           2.4891   -2.0953    0.6350 H         1 ****        0.0000 
     52 H          -4.8270    3.1667   -1.5273 H         1 ****        0.0000 
     53 H          -4.5829    2.5281    0.1140 H         1 ****        0.0000 
     54 H          -2.8106    1.7845   -2.1554 H         1 ****        0.0000 
     55 H          -0.9262    0.2765    1.1719 H         1 ****        0.0000 
     56 H           1.4357   -0.2190    3.8392 H         1 ****        0.0000 
     57 O          -0.5929   -0.5610    4.7230 O.3       1 ****        0.0000 
     58 C          -1.9045   -0.6842    5.3618 C.3       1 ****        0.0000 
     59 C          -2.5099   -2.0467    5.0382 C.3       1 ****        0.0000 
     60 H          -2.7767   -2.1224    3.9833 H         1 ****        0.0000 
     61 H          -1.7995   -2.8425    5.2864 H         1 ****        0.0000 
     62 H          -3.4120   -2.1912    5.6406 H         1 ****        0.0000 
     63 C          -2.8116    0.4706    4.9463 C.3       1 ****        0.0000 
     64 H          -3.7165    0.4481    5.5608 H         1 ****        0.0000 
     65 H          -2.3059    1.4259    5.1159 H         1 ****        0.0000 
     66 H          -3.0965    0.4014    3.8957 H         1 ****        0.0000 
     67 C          -1.5620   -0.5885    6.8440 C.3       1 ****        0.0000 
     68 H          -0.8752   -1.3894    7.1305 H         1 ****        0.0000 
     69 H          -1.0935    0.3739    7.0668 H         1 ****        0.0000 
     70 H          -2.4740   -0.6804    7.4393 H         1 ****        0.0000 
@<TRIPOS>BOND
     1    1   23 1    
     2    1   31 1    
     3    1   54 1    
     4    2   29 1    
     5    3    6 1    
     6    3    9 1    
     7    3   37 1    
     8    4   30 1    
     9    4   34 1    
    10    4   55 1    
    11    5   30 1    
    12    6   11 1    
    13    6   38 1    
    14    7   32 1    
    15    7   33 1    
    16    7   56 1    
    17    8   31 1    
    18    9   13 1    
    19    9   39 1    
    20   10   32 1    
    21   11   26 1    
    22   11   40 1    
    23   12   27 1    
    24   12   28 1    
    25   13   26 1    
    26   13   41 1    
    27   14   18 1    
    28   14   24 1    
    29   14   42 1    
    30   15   19 1    
    31   15   24 1    
    32   15   43 1    
    33   16   20 1    
    34   16   25 1    
    35   16   44 1    
    36   17   21 1    
    37   17   25 1    
    38   17   45 1    
    39   18   27 1    
    40   18   46 1    
    41   19   27 1    
    42   19   47 1    
    43   20   28 1    
    44   20   48 1    
    45   21   28 1    
    46   21   49 1    
    47   22   24 1    
    48   22   33 1    
    49   22   50 1    
    50   22   51 1    
    51   23   29 1    
    52   23   52 1    
    53   23   53 1    
    54   25   29 1    
    55   26   34 1    
    56   30   33 1    
    57   31   34 1    
    58   32   57 1    
    59   33   35 1    
    60   34   36 1    
    61   57   58 1    
    62   58   59 1    
    63   58   63 1    
    64   58   67 1    
    65   59   60 1    
    66   59   61 1    
    67   59   62 1    
    68   63   64 1    
    69   63   65 1    
    70   63   66 1    
    71   67   68 1    
    72   67   69 1    
    73   67   70 1    
@<TRIPOS>SUBSTRUCTURE
     1 ****        1 GROUP             0       ****    0 ROOT    
@<TRIPOS>MOLECULE
Cpd2-3
70   73    1
SMALL
USER_CHARGES


@<TRIPOS>ATOM
      1 N          -3.0947    2.0750   -1.1227 N.3       1 ****        0.0000 
      2 O          -6.2215    1.2959   -2.1748 O.3       1 ****        0.0000 
      3 C          -0.9505   -0.6328   -4.4703 C.3       1 ****        0.0000 
      4 N          -0.2472    0.5245    0.4350 N.3       1 ****        0.0000 
      5 O           1.8306    0.3826   -0.4625 O.3       1 ****        0.0000 
      6 C          -0.1311    0.4799   -4.2926 C.3       1 ****        0.0000 
      7 N           0.6908   -0.3391    2.8824 N.3       1 ****        0.0000 
      8 O          -2.4433    1.8620    1.0430 O.3       1 ****        0.0000 
      9 C          -1.7100   -1.1136   -3.4024 C.3       1 ****        0.0000 
     10 O          -0.1421    0.9751    4.5480 O.3       1 ****        0.0000 
     11 C          -0.0699    1.1114   -3.0497 C.3       1 ****        0.0000 
     12 O          -3.3706   -3.9141    0.2331 O.3       1 ****        0.0000 
     13 C          -1.6439   -0.4843   -2.1617 C.3       1 ****        0.0000 
     14 C           0.0850   -2.7972   -0.1851 C.3       1 ****        0.0000 
     15 C          -0.2789   -3.3410    2.1301 C.3       1 ****        0.0000 
     16 C          -4.4113   -0.4032    0.4235 C.3       1 ****        0.0000 
     17 C          -5.1336   -1.3384   -1.6856 C.3       1 ****        0.0000 
     18 C          -1.1829   -3.2710   -0.4951 C.3       1 ****        0.0000 
     19 C          -1.5683   -3.7923    1.8363 C.3       1 ****        0.0000 
     20 C          -3.9265   -1.6444    0.8097 C.3       1 ****        0.0000 
     21 C          -4.6318   -2.5846   -1.3138 C.3       1 ****        0.0000 
     22 C           1.8020   -2.0377    1.4869 C.3       1 ****        0.0000 
     23 C          -4.5035    2.3140   -0.8585 C.3       1 ****        0.0000 
     24 C           0.5326   -2.7746    1.1404 C.3       1 ****        0.0000 
     25 C          -4.9864   -0.2320   -0.8413 C.3       1 ****        0.0000 
     26 C          -0.8235    0.6334   -1.9787 C.3       1 ****        0.0000 
     27 C          -2.0254   -3.6920    0.5293 C.3       1 ****        0.0000 
     28 C          -3.9931   -2.7169   -0.0824 C.3       1 ****        0.0000 
     29 C          -5.3491    1.1245   -1.3449 C.3       1 ****        0.0000 
     30 C           1.0553    0.1747    0.4661 C.3       1 ****        0.0000 
     31 C          -2.1957    1.7838   -0.1558 C.3       1 ****        0.0000 
     32 C           0.5575    0.8408    3.5582 C.3       1 ****        0.0000 
     33 C           1.5589   -0.5319    1.7374 C.3       1 ****        0.0000 
     34 C          -0.7955    1.3393   -0.6364 C.3       1 ****        0.0000 
     35 H           2.5287   -0.0684    1.9394 H         1 ****        0.0000 
     36 H          -0.1874    2.2513   -0.7361 H         1 ****        0.0000 
     37 H          -1.0024   -1.1228   -5.4378 H         1 ****        0.0000 
     38 H           0.4645    0.8554   -5.1185 H         1 ****        0.0000 
     39 H          -2.3609   -1.9741   -3.5373 H         1 ****        0.0000 
     40 H           0.5780    1.9714   -2.9052 H         1 ****        0.0000 
     41 H          -2.2395   -0.8536   -1.3286 H         1 ****        0.0000 
     42 H           0.7143   -2.3942   -0.9753 H         1 ****        0.0000 
     43 H           0.0801   -3.4003    3.1551 H         1 ****        0.0000 
     44 H          -4.3103    0.4339    1.1045 H         1 ****        0.0000 
     45 H          -5.5902   -1.2005   -2.6613 H         1 ****        0.0000 
     46 H          -1.5544   -3.2492   -1.5153 H         1 ****        0.0000 
     47 H          -2.2298   -4.1615    2.6137 H         1 ****        0.0000 
     48 H          -3.4497   -1.7728    1.7759 H         1 ****        0.0000 
     49 H          -4.6840   -3.4380   -1.9821 H         1 ****        0.0000 
     50 H           2.2664   -2.4529    2.3876 H         1 ****        0.0000 
     51 H           2.5251   -2.1141    0.6702 H         1 ****        0.0000 
     52 H          -4.8489    3.2032   -1.3876 H         1 ****        0.0000 
     53 H          -4.6225    2.4688    0.2168 H         1 ****        0.0000 
     54 H          -2.8180    1.9208   -2.0842 H         1 ****        0.0000 
     55 H          -0.8051    0.4494    1.2793 H         1 ****        0.0000 
     56 H           0.1752   -1.1173    3.2687 H         1 ****        0.0000 
     57 O           1.2874    1.7970    2.9676 O.3       1 ****        0.0000 
     58 C           1.1743    3.1978    3.3722 C.3       1 ****        0.0000 
     59 C           2.0742    3.9033    2.3635 C.3       1 ****        0.0000 
     60 H           3.0973    3.5251    2.4346 H         1 ****        0.0000 
     61 H           1.7084    3.7329    1.3463 H         1 ****        0.0000 
     62 H           2.0816    4.9782    2.5613 H         1 ****        0.0000 
     63 C           1.7036    3.3755    4.7915 C.3       1 ****        0.0000 
     64 H           1.7334    4.4421    5.0308 H         1 ****        0.0000 
     65 H           1.0643    2.8690    5.5149 H         1 ****        0.0000 
     66 H           2.7204    2.9780    4.8670 H         1 ****        0.0000 
     67 C          -0.2702    3.6648    3.2215 C.3       1 ****        0.0000 
     68 H          -0.6491    3.4033    2.2288 H         1 ****        0.0000 
     69 H          -0.9172    3.2107    3.9739 H         1 ****        0.0000 
     70 H          -0.3061    4.7525    3.3359 H         1 ****        0.0000 
@<TRIPOS>BOND
     1    1   23 1    
     2    1   31 1    
     3    1   54 1    
     4    2   29 1    
     5    3    6 1    
     6    3    9 1    
     7    3   37 1    
     8    4   30 1    
     9    4   34 1    
    10    4   55 1    
    11    5   30 1    
    12    6   11 1    
    13    6   38 1    
    14    7   32 1    
    15    7   33 1    
    16    7   56 1    
    17    8   31 1    
    18    9   13 1    
    19    9   39 1    
    20   10   32 1    
    21   11   26 1    
    22   11   40 1    
    23   12   27 1    
    24   12   28 1    
    25   13   26 1    
    26   13   41 1    
    27   14   18 1    
    28   14   24 1    
    29   14   42 1    
    30   15   19 1    
    31   15   24 1    
    32   15   43 1    
    33   16   20 1    
    34   16   25 1    
    35   16   44 1    
    36   17   21 1    
    37   17   25 1    
    38   17   45 1    
    39   18   27 1    
    40   18   46 1    
    41   19   27 1    
    42   19   47 1    
    43   20   28 1    
    44   20   48 1    
    45   21   28 1    
    46   21   49 1    
    47   22   24 1    
    48   22   33 1    
    49   22   50 1    
    50   22   51 1    
    51   23   29 1    
    52   23   52 1    
    53   23   53 1    
    54   25   29 1    
    55   26   34 1    
    56   30   33 1    
    57   31   34 1    
    58   32   57 1    
    59   33   35 1    
    60   34   36 1    
    61   57   58 1    
    62   58   59 1    
    63   58   63 1    
    64   58   67 1    
    65   59   60 1    
    66   59   61 1    
    67   59   62 1    
    68   63   64 1    
    69   63   65 1    
    70   63   66 1    
    71   67   68 1    
    72   67   69 1    
    73   67   70 1    
@<TRIPOS>SUBSTRUCTURE
     1 ****        1 GROUP             0       ****    0 ROOT    
@<TRIPOS>MOLECULE
Cpd2-4
70   73    1
SMALL
USER_CHARGES


@<TRIPOS>ATOM
      1 N          -3.1032    2.0925   -1.1431 N.3       1 ****        0.0000 
      2 O          -6.2415    1.2834   -2.1563 O.3       1 ****        0.0000 
      3 C          -1.0039   -0.6395   -4.4624 C.3       1 ****        0.0000 
      4 N          -0.2540    0.5840    0.4320 N.3       1 ****        0.0000 
      5 O           1.7916    0.2539   -0.5000 O.3       1 ****        0.0000 
      6 C          -1.7173   -1.1309   -3.3669 C.3       1 ****        0.0000 
      7 N           0.5870   -0.3602    2.8586 N.3       1 ****        0.0000 
      8 O          -2.4394    1.9273    1.0219 O.3       1 ****        0.0000 
      9 C          -0.2091    0.4957   -4.3183 C.3       1 ****        0.0000 
     10 O           1.4086    1.6743    3.4719 O.3       1 ****        0.0000 
     11 C          -1.6309   -0.4888   -2.1341 C.3       1 ****        0.0000 
     12 O          -3.3620   -3.9140    0.2401 O.3       1 ****        0.0000 
     13 C          -0.1279    1.1407   -3.0835 C.3       1 ****        0.0000 
     14 C           0.1014   -2.8199   -0.1740 C.3       1 ****        0.0000 
     15 C          -0.2706   -3.3565    2.1426 C.3       1 ****        0.0000 
     16 C          -4.3805   -0.3941    0.4201 C.3       1 ****        0.0000 
     17 C          -5.1300   -1.3391   -1.6753 C.3       1 ****        0.0000 
     18 C          -1.1664   -3.2900   -0.4853 C.3       1 ****        0.0000 
     19 C          -1.5613   -3.8046    1.8460 C.3       1 ****        0.0000 
     20 C          -3.8950   -1.6342    0.8076 C.3       1 ****        0.0000 
     21 C          -4.6275   -2.5844   -1.3023 C.3       1 ****        0.0000 
     22 C           1.7979   -2.0314    1.5081 C.3       1 ****        0.0000 
     23 C          -4.5118    2.3233   -0.8737 C.3       1 ****        0.0000 
     24 C           0.5446   -2.7921    1.1544 C.3       1 ****        0.0000 
     25 C          -4.9724   -0.2287   -0.8382 C.3       1 ****        0.0000 
     26 C          -0.8348    0.6509   -1.9860 C.3       1 ****        0.0000 
     27 C          -2.0148   -3.7033    0.5384 C.3       1 ****        0.0000 
     28 C          -3.9753   -2.7125   -0.0770 C.3       1 ****        0.0000 
     29 C          -5.3533    1.1231   -1.3416 C.3       1 ****        0.0000 
     30 C           1.0234    0.1467    0.4503 C.3       1 ****        0.0000 
     31 C          -2.1971    1.8289   -0.1766 C.3       1 ****        0.0000 
     32 C           0.6314    0.7527    3.6465 C.3       1 ****        0.0000 
     33 C           1.4978   -0.5335    1.7493 C.3       1 ****        0.0000 
     34 C          -0.7956    1.3801   -0.6553 C.3       1 ****        0.0000 
     35 H           2.4342   -0.0292    2.0038 H         1 ****        0.0000 
     36 H          -0.1901    2.2898   -0.7753 H         1 ****        0.0000 
     37 H          -1.0727   -1.1392   -5.4228 H         1 ****        0.0000 
     38 H          -2.3507   -2.0075   -3.4758 H         1 ****        0.0000 
     39 H           0.3506    0.8795   -5.1655 H         1 ****        0.0000 
     40 H          -2.1908   -0.8633   -1.2799 H         1 ****        0.0000 
     41 H           0.4996    2.0197   -2.9675 H         1 ****        0.0000 
     42 H           0.7346   -2.4187   -0.9619 H         1 ****        0.0000 
     43 H           0.0851   -3.4064    3.1690 H         1 ****        0.0000 
     44 H          -4.2683    0.4479    1.0934 H         1 ****        0.0000 
     45 H          -5.5988   -1.2067   -2.6455 H         1 ****        0.0000 
     46 H          -1.5363   -3.2696   -1.5053 H         1 ****        0.0000 
     47 H          -2.2256   -4.1691    2.6229 H         1 ****        0.0000 
     48 H          -3.4077   -1.7590    1.7687 H         1 ****        0.0000 
     49 H          -4.6880   -3.4413   -1.9654 H         1 ****        0.0000 
     50 H           2.2603   -2.4296    2.4156 H         1 ****        0.0000 
     51 H           2.5281   -2.0908    0.6961 H         1 ****        0.0000 
     52 H          -4.8681    3.2047   -1.4087 H         1 ****        0.0000 
     53 H          -4.6261    2.4874    0.2006 H         1 ****        0.0000 
     54 H          -2.8305    1.9241   -2.1028 H         1 ****        0.0000 
     55 H          -0.7842    0.5966    1.2956 H         1 ****        0.0000 
     56 H          -0.1041   -1.0679    3.0694 H         1 ****        0.0000 
     57 O          -0.2977    0.6701    4.6119 O.3       1 ****        0.0000 
     58 C          -0.5026    1.7741    5.5512 C.3       1 ****        0.0000 
     59 C           0.7514    1.9826    6.3936 C.3       1 ****        0.0000 
     60 H           1.0510    1.0408    6.8639 H         1 ****        0.0000 
     61 H           1.5769    2.3602    5.7891 H         1 ****        0.0000 
     62 H           0.5334    2.7067    7.1845 H         1 ****        0.0000 
     63 C          -1.6509    1.2668    6.4160 C.3       1 ****        0.0000 
     64 H          -1.8980    2.0134    7.1752 H         1 ****        0.0000 
     65 H          -2.5375    1.0826    5.8038 H         1 ****        0.0000 
     66 H          -1.3696    0.3371    6.9182 H         1 ****        0.0000 
     67 C          -0.9154    3.0336    4.7963 C.3       1 ****        0.0000 
     68 H          -0.0940    3.4270    4.1971 H         1 ****        0.0000 
     69 H          -1.7650    2.8185    4.1413 H         1 ****        0.0000 
     70 H          -1.2218    3.7965    5.5179 H         1 ****        0.0000 
@<TRIPOS>BOND
     1    1   23 1    
     2    1   31 1    
     3    1   54 1    
     4    2   29 1    
     5    3    6 1    
     6    3    9 1    
     7    3   37 1    
     8    4   30 1    
     9    4   34 1    
    10    4   55 1    
    11    5   30 1    
    12    6   11 1    
    13    6   38 1    
    14    7   32 1    
    15    7   33 1    
    16    7   56 1    
    17    8   31 1    
    18    9   13 1    
    19    9   39 1    
    20   10   32 1    
    21   11   26 1    
    22   11   40 1    
    23   12   27 1    
    24   12   28 1    
    25   13   26 1    
    26   13   41 1    
    27   14   18 1    
    28   14   24 1    
    29   14   42 1    
    30   15   19 1    
    31   15   24 1    
    32   15   43 1    
    33   16   20 1    
    34   16   25 1    
    35   16   44 1    
    36   17   21 1    
    37   17   25 1    
    38   17   45 1    
    39   18   27 1    
    40   18   46 1    
    41   19   27 1    
    42   19   47 1    
    43   20   28 1    
    44   20   48 1    
    45   21   28 1    
    46   21   49 1    
    47   22   24 1    
    48   22   33 1    
    49   22   50 1    
    50   22   51 1    
    51   23   29 1    
    52   23   52 1    
    53   23   53 1    
    54   25   29 1    
    55   26   34 1    
    56   30   33 1    
    57   31   34 1    
    58   32   57 1    
    59   33   35 1    
    60   34   36 1    
    61   57   58 1    
    62   58   59 1    
    63   58   63 1    
    64   58   67 1    
    65   59   60 1    
    66   59   61 1    
    67   59   62 1    
    68   63   64 1    
    69   63   65 1    
    70   63   66 1    
    71   67   68 1    
    72   67   69 1    
    73   67   70 1    
@<TRIPOS>SUBSTRUCTURE
     1 ****        1 GROUP             0       ****    0 ROOT    
@<TRIPOS>MOLECULE
Cpd2-5
70   73    1
SMALL
USER_CHARGES


@<TRIPOS>ATOM
      1 N          -2.6323    1.6030   -0.5289 N.3       1 ****        0.0000 
      2 O          -6.0564    1.6292    0.3196 O.3       1 ****        0.0000 
      3 C           1.3027   -1.9556   -3.9237 C.3       1 ****        0.0000 
      4 N          -0.2635    0.4034    0.0978 N.3       1 ****        0.0000 
      5 O           1.7739    1.2757    0.5791 O.3       1 ****        0.0000 
      6 C           2.1363   -1.0898   -3.2149 C.3       1 ****        0.0000 
      7 N          -0.1929   -0.0384    3.1422 N.3       1 ****        0.0000 
      8 O          -2.0378    1.8200   -2.7071 O.3       1 ****        0.0000 
      9 C          -0.0812   -1.8229   -3.8141 C.3       1 ****        0.0000 
     10 O          -2.1279   -0.3381    1.9224 O.3       1 ****        0.0000 
     11 C           1.5884   -0.1074   -2.3914 C.3       1 ****        0.0000 
     12 O          -3.3404   -4.1160   -0.2830 O.3       1 ****        0.0000 
     13 C          -0.6283   -0.8406   -2.9900 C.3       1 ****        0.0000 
     14 C           0.0695   -2.7947    0.0063 C.3       1 ****        0.0000 
     15 C          -0.8361   -3.1257    2.2106 C.3       1 ****        0.0000 
     16 C          -4.1518   -0.7847   -1.5294 C.3       1 ****        0.0000 
     17 C          -5.3174   -1.1607    0.5569 C.3       1 ****        0.0000 
     18 C          -1.0543   -3.3956   -0.5511 C.3       1 ****        0.0000 
     19 C          -1.9763   -3.7117    1.6640 C.3       1 ****        0.0000 
     20 C          -3.7532   -2.1141   -1.5479 C.3       1 ****        0.0000 
     21 C          -4.8862   -2.4846    0.5658 C.3       1 ****        0.0000 
     22 C           1.2632   -1.7439    1.9690 C.3       1 ****        0.0000 
     23 C          -3.9737    2.1182   -0.7256 C.3       1 ****        0.0000 
     24 C           0.1615   -2.5921    1.3885 C.3       1 ****        0.0000 
     25 C          -4.8853   -0.2890   -0.4456 C.3       1 ****        0.0000 
     26 C           0.2008    0.0160   -2.2644 C.3       1 ****        0.0000 
     27 C          -2.0994   -3.7835    0.2812 C.3       1 ****        0.0000 
     28 C          -4.0381   -2.9208   -0.4446 C.3       1 ****        0.0000 
     29 C          -5.0847    1.1734   -0.2522 C.3       1 ****        0.0000 
     30 C           0.8240    0.5569    0.8829 C.3       1 ****        0.0000 
     31 C          -1.7552    1.4997   -1.5569 C.3       1 ****        0.0000 
     32 C          -1.5386   -0.1228    2.9755 C.3       1 ****        0.0000 
     33 C           0.8987   -0.2492    2.1929 C.3       1 ****        0.0000 
     34 C          -0.3437    0.9920   -1.2304 C.3       1 ****        0.0000 
     35 H           1.7673    0.1954    2.6816 H         1 ****        0.0000 
     36 H           0.2974    1.8805   -1.2153 H         1 ****        0.0000 
     37 H           1.7282   -2.7212   -4.5650 H         1 ****        0.0000 
     38 H           3.2148   -1.1772   -3.3045 H         1 ****        0.0000 
     39 H          -0.7379   -2.4838   -4.3723 H         1 ****        0.0000 
     40 H           2.2344    0.5584   -1.8271 H         1 ****        0.0000 
     41 H          -1.7048   -0.7345   -2.9179 H         1 ****        0.0000 
     42 H           0.8545   -2.4266   -0.6517 H         1 ****        0.0000 
     43 H          -0.7556   -3.0220    3.2904 H         1 ****        0.0000 
     44 H          -3.8591   -0.1209   -2.3402 H         1 ****        0.0000 
     45 H          -5.9170   -0.7709    1.3756 H         1 ****        0.0000 
     46 H          -1.1475   -3.5032   -1.6265 H         1 ****        0.0000 
     47 H          -2.7904   -4.0534    2.2963 H         1 ****        0.0000 
     48 H          -3.1503   -2.5100   -2.3581 H         1 ****        0.0000 
     49 H          -5.1246   -3.1506    1.3892 H         1 ****        0.0000 
     50 H           1.5656   -2.1356    2.9460 H         1 ****        0.0000 
     51 H           2.1471   -1.7654    1.3209 H         1 ****        0.0000 
     52 H          -4.0963    2.3082   -1.7976 H         1 ****        0.0000 
     53 H          -4.1173    3.0627   -0.1942 H         1 ****        0.0000 
     54 H          -2.3549    1.2901    0.3962 H         1 ****        0.0000 
     55 H          -0.9482   -0.2982    0.3711 H         1 ****        0.0000 
     56 H           0.0915    0.1657    4.0908 H         1 ****        0.0000 
     57 O          -2.1398    0.0870    4.1561 O.3       1 ****        0.0000 
     58 C          -3.5941   -0.0105    4.2918 C.3       1 ****        0.0000 
     59 C          -4.2823    1.0201    3.4010 C.3       1 ****        0.0000 
     60 H          -3.8623    2.0143    3.5780 H         1 ****        0.0000 
     61 H          -4.1750    0.7646    2.3467 H         1 ****        0.0000 
     62 H          -5.3496    1.0501    3.6430 H         1 ****        0.0000 
     63 C          -3.8198    0.3204    5.7614 C.3       1 ****        0.0000 
     64 H          -4.8858    0.2495    5.9942 H         1 ****        0.0000 
     65 H          -3.2752   -0.3810    6.3990 H         1 ****        0.0000 
     66 H          -3.4805    1.3357    5.9827 H         1 ****        0.0000 
     67 C          -4.0311   -1.4380    3.9821 C.3       1 ****        0.0000 
     68 H          -3.8015   -1.6952    2.9468 H         1 ****        0.0000 
     69 H          -3.5216   -2.1410    4.6495 H         1 ****        0.0000 
     70 H          -5.1098   -1.5305    4.1406 H         1 ****        0.0000 
@<TRIPOS>BOND
     1    1   23 1    
     2    1   31 1    
     3    1   54 1    
     4    2   29 1    
     5    3    6 1    
     6    3    9 1    
     7    3   37 1    
     8    4   30 1    
     9    4   34 1    
    10    4   55 1    
    11    5   30 1    
    12    6   11 1    
    13    6   38 1    
    14    7   32 1    
    15    7   33 1    
    16    7   56 1    
    17    8   31 1    
    18    9   13 1    
    19    9   39 1    
    20   10   32 1    
    21   11   26 1    
    22   11   40 1    
    23   12   27 1    
    24   12   28 1    
    25   13   26 1    
    26   13   41 1    
    27   14   18 1    
    28   14   24 1    
    29   14   42 1    
    30   15   19 1    
    31   15   24 1    
    32   15   43 1    
    33   16   20 1    
    34   16   25 1    
    35   16   44 1    
    36   17   21 1    
    37   17   25 1    
    38   17   45 1    
    39   18   27 1    
    40   18   46 1    
    41   19   27 1    
    42   19   47 1    
    43   20   28 1    
    44   20   48 1    
    45   21   28 1    
    46   21   49 1    
    47   22   24 1    
    48   22   33 1    
    49   22   50 1    
    50   22   51 1    
    51   23   29 1    
    52   23   52 1    
    53   23   53 1    
    54   25   29 1    
    55   26   34 1    
    56   30   33 1    
    57   31   34 1    
    58   32   57 1    
    59   33   35 1    
    60   34   36 1    
    61   57   58 1    
    62   58   59 1    
    63   58   63 1    
    64   58   67 1    
    65   59   60 1    
    66   59   61 1    
    67   59   62 1    
    68   63   64 1    
    69   63   65 1    
    70   63   66 1    
    71   67   68 1    
    72   67   69 1    
    73   67   70 1    
@<TRIPOS>SUBSTRUCTURE
     1 ****        1 GROUP             0       ****    0 ROOT    
@<TRIPOS>MOLECULE
Cpd2-6
70   73    1
SMALL
USER_CHARGES


@<TRIPOS>ATOM
      1 N          -3.0947    2.0760   -1.1221 N.3       1 ****        0.0000 
      2 O          -6.2206    1.2959   -2.1758 O.3       1 ****        0.0000 
      3 C          -0.9509   -0.6331   -4.4706 C.3       1 ****        0.0000 
      4 N          -0.2481    0.5251    0.4352 N.3       1 ****        0.0000 
      5 O           1.8311    0.3831   -0.4624 O.3       1 ****        0.0000 
      6 C          -1.7109   -1.1146   -3.4015 C.3       1 ****        0.0000 
      7 N           0.6909   -0.3390    2.8823 N.3       1 ****        0.0000 
      8 O          -2.4433    1.8612    1.0435 O.3       1 ****        0.0000 
      9 C          -0.1313    0.4795   -4.2931 C.3       1 ****        0.0000 
     10 O          -0.1418    0.9756    4.5477 O.3       1 ****        0.0000 
     11 C          -1.6439   -0.4850   -2.1617 C.3       1 ****        0.0000 
     12 O          -3.3704   -3.9140    0.2331 O.3       1 ****        0.0000 
     13 C          -0.0701    1.1113   -3.0503 C.3       1 ****        0.0000 
     14 C           0.0847   -2.7981   -0.1861 C.3       1 ****        0.0000 
     15 C          -0.2785   -3.3409    2.1299 C.3       1 ****        0.0000 
     16 C          -5.1331   -1.3385   -1.6861 C.3       1 ****        0.0000 
     17 C          -4.4124   -0.4042    0.4238 C.3       1 ****        0.0000 
     18 C          -1.1829   -3.2704   -0.4956 C.3       1 ****        0.0000 
     19 C          -1.5681   -3.7921    1.8362 C.3       1 ****        0.0000 
     20 C          -4.6322   -2.5847   -1.3134 C.3       1 ****        0.0000 
     21 C          -3.9273   -1.6441    0.8107 C.3       1 ****        0.0000 
     22 C           1.8025   -2.0381    1.4864 C.3       1 ****        0.0000 
     23 C          -4.5038    2.3140   -0.8583 C.3       1 ****        0.0000 
     24 C           0.5323   -2.7749    1.1408 C.3       1 ****        0.0000 
     25 C          -4.9857   -0.2319   -0.8421 C.3       1 ****        0.0000 
     26 C          -0.8234    0.6327   -1.9789 C.3       1 ****        0.0000 
     27 C          -2.0259   -3.6921    0.5300 C.3       1 ****        0.0000 
     28 C          -3.9927   -2.7168   -0.0827 C.3       1 ****        0.0000 
     29 C          -5.3489    1.1245   -1.3452 C.3       1 ****        0.0000 
     30 C           1.0558    0.1755    0.4663 C.3       1 ****        0.0000 
     31 C          -2.1967    1.7832   -0.1562 C.3       1 ****        0.0000 
     32 C           0.5578    0.8410    3.5578 C.3       1 ****        0.0000 
     33 C           1.5590   -0.5322    1.7373 C.3       1 ****        0.0000 
     34 C          -0.7952    1.3392   -0.6355 C.3       1 ****        0.0000 
     35 H           2.5295   -0.0684    1.9398 H         1 ****        0.0000 
     36 H          -0.1870    2.2507   -0.7367 H         1 ****        0.0000 
     37 H          -1.0029   -1.1233   -5.4379 H         1 ****        0.0000 
     38 H          -2.3615   -1.9740   -3.5372 H         1 ****        0.0000 
     39 H           0.4639    0.8557   -5.1194 H         1 ****        0.0000 
     40 H          -2.2395   -0.8540   -1.3286 H         1 ****        0.0000 
     41 H           0.5780    1.9712   -2.9060 H         1 ****        0.0000 
     42 H           0.7145   -2.3940   -0.9760 H         1 ****        0.0000 
     43 H           0.0797   -3.4001    3.1556 H         1 ****        0.0000 
     44 H          -5.5897   -1.2007   -2.6618 H         1 ****        0.0000 
     45 H          -4.3106    0.4333    1.1053 H         1 ****        0.0000 
     46 H          -1.5548   -3.2497   -1.5148 H         1 ****        0.0000 
     47 H          -2.2295   -4.1610    2.6137 H         1 ****        0.0000 
     48 H          -4.6837   -3.4381   -1.9822 H         1 ****        0.0000 
     49 H          -3.4512   -1.7728    1.7762 H         1 ****        0.0000 
     50 H           2.2669   -2.4531    2.3872 H         1 ****        0.0000 
     51 H           2.5249   -2.1152    0.6690 H         1 ****        0.0000 
     52 H          -4.8491    3.2032   -1.3876 H         1 ****        0.0000 
     53 H          -4.6228    2.4690    0.2169 H         1 ****        0.0000 
     54 H          -2.8178    1.9207   -2.0834 H         1 ****        0.0000 
     55 H          -0.8056    0.4489    1.2784 H         1 ****        0.0000 
     56 H           0.1745   -1.1175    3.2681 H         1 ****        0.0000 
     57 O           1.2881    1.7961    2.9672 O.3       1 ****        0.0000 
     58 C           1.1749    3.1979    3.3713 C.3       1 ****        0.0000 
     59 C          -0.2692    3.6642    3.2208 C.3       1 ****        0.0000 
     60 H          -0.6485    3.4034    2.2279 H         1 ****        0.0000 
     61 H          -0.9163    3.2099    3.9720 H         1 ****        0.0000 
     62 H          -0.3050    4.7519    3.3350 H         1 ****        0.0000 
     63 C           2.0758    3.9025    2.3634 C.3       1 ****        0.0000 
     64 H           2.0825    4.9780    2.5601 H         1 ****        0.0000 
     65 H           3.0989    3.5242    2.4346 H         1 ****        0.0000 
     66 H           1.7097    3.7329    1.3460 H         1 ****        0.0000 
     67 C           1.7045    3.3749    4.7908 C.3       1 ****        0.0000 
     68 H           1.0642    2.8696    5.5149 H         1 ****        0.0000 
     69 H           2.7206    2.9773    4.8671 H         1 ****        0.0000 
     70 H           1.7342    4.4425    5.0297 H         1 ****        0.0000 
@<TRIPOS>BOND
     1    1   23 1    
     2    1   31 1    
     3    1   54 1    
     4    2   29 1    
     5    3    6 1    
     6    3    9 1    
     7    3   37 1    
     8    4   30 1    
     9    4   34 1    
    10    4   55 1    
    11    5   30 1    
    12    6   11 1    
    13    6   38 1    
    14    7   32 1    
    15    7   33 1    
    16    7   56 1    
    17    8   31 1    
    18    9   13 1    
    19    9   39 1    
    20   10   32 1    
    21   11   26 1    
    22   11   40 1    
    23   12   27 1    
    24   12   28 1    
    25   13   26 1    
    26   13   41 1    
    27   14   18 1    
    28   14   24 1    
    29   14   42 1    
    30   15   19 1    
    31   15   24 1    
    32   15   43 1    
    33   16   20 1    
    34   16   25 1    
    35   16   44 1    
    36   17   21 1    
    37   17   25 1    
    38   17   45 1    
    39   18   27 1    
    40   18   46 1    
    41   19   27 1    
    42   19   47 1    
    43   20   28 1    
    44   20   48 1    
    45   21   28 1    
    46   21   49 1    
    47   22   24 1    
    48   22   33 1    
    49   22   50 1    
    50   22   51 1    
    51   23   29 1    
    52   23   52 1    
    53   23   53 1    
    54   25   29 1    
    55   26   34 1    
    56   30   33 1    
    57   31   34 1    
    58   32   57 1    
    59   33   35 1    
    60   34   36 1    
    61   57   58 1    
    62   58   59 1    
    63   58   63 1    
    64   58   67 1    
    65   59   60 1    
    66   59   61 1    
    67   59   62 1    
    68   63   64 1    
    69   63   65 1    
    70   63   66 1    
    71   67   68 1    
    72   67   69 1    
    73   67   70 1    
@<TRIPOS>SUBSTRUCTURE
     1 ****        1 GROUP             0       ****    0 ROOT    
@<TRIPOS>MOLECULE
Cpd2-7-MEC
70   73    1
SMALL
USER_CHARGES


@<TRIPOS>ATOM
      1 N          -3.2240    2.0670   -0.3850 N.3       1 ****        0.0000 
      2 O          -6.5960    1.5710   -0.6600 O.3       1 ****        0.0000 
      3 C           0.6280    5.5770    0.8130 C.3       1 ****        0.0000 
      4 N           0.0520    0.6090   -0.0610 N.3       1 ****        0.0000 
      5 O           1.0760    0.6300    1.9570 O.3       1 ****        0.0000 
      6 C          -0.1220    4.9960    1.8350 C.3       1 ****        0.0000 
      7 N           3.3240   -0.1970    0.4070 N.3       1 ****        0.0000 
      8 O          -1.7340    1.2910   -1.9210 O.3       1 ****        0.0000 
      9 C           0.8820    4.8590   -0.3570 C.3       1 ****        0.0000 
     10 O           4.2590   -1.4800   -1.2270 O.3       1 ****        0.0000 
     11 C          -0.6180    3.7010    1.6860 C.3       1 ****        0.0000 
     12 O          -3.3820   -3.8920    0.2860 O.3       1 ****        0.0000 
     13 C           0.3830    3.5670   -0.5060 C.3       1 ****        0.0000 
     14 C           0.2710   -3.6400   -0.0200 C.3       1 ****        0.0000 
     15 C          -0.4610   -2.3590    1.8830 C.3       1 ****        0.0000 
     16 C          -3.9930   -0.7590   -1.4940 C.3       1 ****        0.0000 
     17 C          -5.6720   -1.0390    0.2250 C.3       1 ****        0.0000 
     18 C          -1.0350   -4.0830   -0.2370 C.3       1 ****        0.0000 
     19 C          -1.7670   -2.7870    1.6750 C.3       1 ****        0.0000 
     20 C          -3.4820   -2.0120   -1.2040 C.3       1 ****        0.0000 
     21 C          -5.1490   -2.2920    0.5390 C.3       1 ****        0.0000 
     22 C           1.9310   -2.1170    1.1300 C.3       1 ****        0.0000 
     23 C          -4.3680    2.1840   -1.2740 C.3       1 ****        0.0000 
     24 C           0.5670   -2.7480    1.0150 C.3       1 ****        0.0000 
     25 C          -5.0630   -0.2440   -0.7520 C.3       1 ****        0.0000 
     26 C          -0.3710    2.9850    0.5160 C.3       1 ****        0.0000 
     27 C          -2.0470   -3.6130    0.5890 C.3       1 ****        0.0000 
     28 C          -4.0200   -2.7400   -0.1420 C.3       1 ****        0.0000 
     29 C          -5.4700    1.1800   -0.9000 C.3       1 ****        0.0000 
     30 C           1.0050    0.2080    0.8050 C.3       1 ****        0.0000 
     31 C          -2.0090    1.6220   -0.7720 C.3       1 ****        0.0000 
     32 C           4.3700   -0.6570   -0.3320 C.3       1 ****        0.0000 
     33 C           2.0190   -0.8170    0.2970 C.3       1 ****        0.0000 
     34 C          -0.9440    1.5850    0.3330 C.3       1 ****        0.0000 
     35 H           1.8450   -1.0500   -0.7570 H         1 ****        0.0000 
     36 H          -1.3970    1.2620    1.2780 H         1 ****        0.0000 
     37 H           1.0180    6.5830    0.9290 H         1 ****        0.0000 
     38 H          -0.3120    5.5450    2.7520 H         1 ****        0.0000 
     39 H           1.4680    5.3060   -1.1540 H         1 ****        0.0000 
     40 H          -1.1830    3.2390    2.4920 H         1 ****        0.0000 
     41 H           0.5790    3.0060   -1.4170 H         1 ****        0.0000 
     42 H           1.0640   -3.9680   -0.6870 H         1 ****        0.0000 
     43 H          -0.2380   -1.6840    2.7050 H         1 ****        0.0000 
     44 H          -3.5280   -0.1700   -2.2780 H         1 ****        0.0000 
     45 H          -6.5130   -0.6400    0.7830 H         1 ****        0.0000 
     46 H          -1.2800   -4.7400   -1.0660 H         1 ****        0.0000 
     47 H          -2.5770   -2.4510    2.3150 H         1 ****        0.0000 
     48 H          -2.6250   -2.3990   -1.7460 H         1 ****        0.0000 
     49 H          -5.5600   -2.8920    1.3450 H         1 ****        0.0000 
     50 H           2.1540   -1.8610    2.1710 H         1 ****        0.0000 
     51 H           2.7110   -2.7910    0.7630 H         1 ****        0.0000 
     52 H          -4.0150    2.0100   -2.2940 H         1 ****        0.0000 
     53 H          -4.7980    3.1860   -1.2150 H         1 ****        0.0000 
     54 H          -3.3540    2.3190    0.5860 H         1 ****        0.0000 
     55 H           0.0250    0.2780   -1.0190 H         1 ****        0.0000 
     56 H           3.5200    0.3620    1.2280 H         1 ****        0.0000 
     57 O           5.5100   -0.0620    0.0550 O.3       1 ****        0.0000 
     58 C           6.7760   -0.3590   -0.6120 C.3       1 ****        0.0000 
     59 C           6.7030    0.0450   -2.0820 C.3       1 ****        0.0000 
     60 H           6.0160   -0.5960   -2.6360 H         1 ****        0.0000 
     61 H           6.3750    1.0850   -2.1700 H         1 ****        0.0000 
     62 H           7.6990   -0.0400   -2.5250 H         1 ****        0.0000 
     63 C           7.1330   -1.8310   -0.4310 C.3       1 ****        0.0000 
     64 H           8.1470   -2.0010   -0.8040 H         1 ****        0.0000 
     65 H           7.1090   -2.0950    0.6310 H         1 ****        0.0000 
     66 H           6.4440   -2.4760   -0.9770 H         1 ****        0.0000 
     67 C           7.7650    0.5280    0.1370 C.3       1 ****        0.0000 
     68 H           7.4840    1.5800    0.0390 H         1 ****        0.0000 
     69 H           7.7850    0.2650    1.1980 H         1 ****        0.0000 
     70 H           8.7680    0.3930   -0.2770 H         1 ****        0.0000 
@<TRIPOS>BOND
     1    1   23 1    
     2    1   31 1    
     3    1   54 1    
     4    2   29 1    
     5    3    6 1    
     6    3    9 1    
     7    3   37 1    
     8    4   30 1    
     9    4   34 1    
    10    4   55 1    
    11    5   30 1    
    12    6   11 1    
    13    6   38 1    
    14    7   32 1    
    15    7   33 1    
    16    7   56 1    
    17    8   31 1    
    18    9   13 1    
    19    9   39 1    
    20   10   32 1    
    21   11   26 1    
    22   11   40 1    
    23   12   27 1    
    24   12   28 1    
    25   13   26 1    
    26   13   41 1    
    27   14   18 1    
    28   14   24 1    
    29   14   42 1    
    30   15   19 1    
    31   15   24 1    
    32   15   43 1    
    33   16   20 1    
    34   16   25 1    
    35   16   44 1    
    36   17   21 1    
    37   17   25 1    
    38   17   45 1    
    39   18   27 1    
    40   18   46 1    
    41   19   27 1    
    42   19   47 1    
    43   20   28 1    
    44   20   48 1    
    45   21   28 1    
    46   21   49 1    
    47   22   24 1    
    48   22   33 1    
    49   22   50 1    
    50   22   51 1    
    51   23   29 1    
    52   23   52 1    
    53   23   53 1    
    54   25   29 1    
    55   26   34 1    
    56   30   33 1    
    57   31   34 1    
    58   32   57 1    
    59   33   35 1    
    60   34   36 1    
    61   57   58 1    
    62   58   59 1    
    63   58   63 1    
    64   58   67 1    
    65   59   60 1    
    66   59   61 1    
    67   59   62 1    
    68   63   64 1    
    69   63   65 1    
    70   63   66 1    
    71   67   68 1    
    72   67   69 1    
    73   67   70 1    
@<TRIPOS>SUBSTRUCTURE
     1 ****        1 GROUP             0       ****    0 ROOT    
@<TRIPOS>MOLECULE
Cpd2-8
70   73    1
SMALL
USER_CHARGES


@<TRIPOS>ATOM
      1 N          -2.9441    1.8306   -1.7726 N.3       1 ****        0.0000 
      2 O          -6.1314    1.7213   -0.1973 O.3       1 ****        0.0000 
      3 C           0.0527   -0.4799   -4.6801 C.3       1 ****        0.0000 
      4 N          -0.3267    0.5225    0.3036 N.3       1 ****        0.0000 
      5 O           1.8761    0.4308   -0.2366 O.3       1 ****        0.0000 
      6 C          -0.6249   -1.1930   -3.6884 C.3       1 ****        0.0000 
      7 N           0.2529   -0.1643    2.9227 N.3       1 ****        0.0000 
      8 O          -2.7069    1.7117    0.4677 O.3       1 ****        0.0000 
      9 C           0.4974    0.8161   -4.4202 C.3       1 ****        0.0000 
     10 O          -0.8956    1.2525    4.2898 O.3       1 ****        0.0000 
     11 C          -0.8543   -0.6091   -2.4452 C.3       1 ****        0.0000 
     12 O          -3.3056   -4.0068   -0.0694 O.3       1 ****        0.0000 
     13 C           0.2684    1.3967   -3.1718 C.3       1 ****        0.0000 
     14 C           0.1851   -2.8878   -0.0343 C.3       1 ****        0.0000 
     15 C          -0.5623   -3.1886    2.2304 C.3       1 ****        0.0000 
     16 C          -5.0035   -0.8167    0.5400 C.3       1 ****        0.0000 
     17 C          -4.3120   -0.9204   -1.7749 C.3       1 ****        0.0000 
     18 C          -1.0137   -3.4153   -0.5017 C.3       1 ****        0.0000 
     19 C          -1.7816   -3.6884    1.7746 C.3       1 ****        0.0000 
     20 C          -4.5443   -2.1113    0.7421 C.3       1 ****        0.0000 
     21 C          -3.8849   -2.2336   -1.5892 C.3       1 ****        0.0000 
     22 C           1.5911   -1.9140    1.8131 C.3       1 ****        0.0000 
     23 C          -4.3503    2.1760   -1.6929 C.3       1 ****        0.0000 
     24 C           0.4025   -2.7105    1.3359 C.3       1 ****        0.0000 
     25 C          -4.8433   -0.1982   -0.7042 C.3       1 ****        0.0000 
     26 C          -0.4054    0.6858   -2.1788 C.3       1 ****        0.0000 
     27 C          -2.0190   -3.7366    0.4056 C.3       1 ****        0.0000 
     28 C          -3.9436   -2.7921   -0.3160 C.3       1 ****        0.0000 
     29 C          -5.1937    1.2485   -0.8075 C.3       1 ****        0.0000 
     30 C           0.9669    0.2258    0.5612 C.3       1 ****        0.0000 
     31 C          -2.2169    1.6351   -0.6548 C.3       1 ****        0.0000 
     32 C          -0.0218    1.0610    3.4612 C.3       1 ****        0.0000 
     33 C           1.2826   -0.4039    1.9310 C.3       1 ****        0.0000 
     34 C          -0.7157    1.3267   -0.8416 C.3       1 ****        0.0000 
     35 H           2.2028    0.0950    2.2466 H         1 ****        0.0000 
     36 H          -0.1969    2.2966   -0.7962 H         1 ****        0.0000 
     37 H           0.2346   -0.9333   -5.6489 H         1 ****        0.0000 
     38 H          -0.9739   -2.2020   -3.8897 H         1 ****        0.0000 
     39 H           1.0296    1.3725   -5.1848 H         1 ****        0.0000 
     40 H          -1.3859   -1.1484   -1.6674 H         1 ****        0.0000 
     41 H           0.6284    2.4015   -2.9639 H         1 ****        0.0000 
     42 H           0.9403   -2.5606   -0.7462 H         1 ****        0.0000 
     43 H          -0.3785   -3.1394    3.3018 H         1 ****        0.0000 
     44 H          -5.4346   -0.2492    1.3594 H         1 ****        0.0000 
     45 H          -4.2064   -0.4600   -2.7534 H         1 ****        0.0000 
     46 H          -1.2011   -3.5190   -1.5657 H         1 ****        0.0000 
     47 H          -2.5584   -3.9944    2.4676 H         1 ****        0.0000 
     48 H          -4.5995   -2.5810    1.7196 H         1 ****        0.0000 
     49 H          -3.4517   -2.8025   -2.4061 H         1 ****        0.0000 
     50 H           1.9258   -2.2590    2.7965 H         1 ****        0.0000 
     51 H           2.4276   -2.0183    1.1175 H         1 ****        0.0000 
     52 H          -4.7621    2.1573   -2.7063 H         1 ****        0.0000 
     53 H          -4.4886    3.1823   -1.2882 H         1 ****        0.0000 
     54 H          -2.5117    1.6889   -2.6749 H         1 ****        0.0000 
     55 H          -1.0121    0.4501    1.0481 H         1 ****        0.0000 
     56 H          -0.3456   -0.9160    3.2336 H         1 ****        0.0000 
     57 O           0.7952    1.9887    2.9431 O.3       1 ****        0.0000 
     58 C           0.5802    3.4138    3.1900 C.3       1 ****        0.0000 
     59 C          -0.8091    3.8141    2.7069 C.3       1 ****        0.0000 
     60 H          -0.9628    3.4750    1.6767 H         1 ****        0.0000 
     61 H          -1.5908    3.3840    3.3356 H         1 ****        0.0000 
     62 H          -0.8960    4.9047    2.7317 H         1 ****        0.0000 
     63 C           1.6574    4.0614    2.3278 C.3       1 ****        0.0000 
     64 H           1.6006    5.1494    2.4187 H         1 ****        0.0000 
     65 H           2.6512    3.7336    2.6477 H         1 ****        0.0000 
     66 H           1.5197    3.7859    1.2785 H         1 ****        0.0000 
     67 C           0.8020    3.7296    4.6656 C.3       1 ****        0.0000 
     68 H           0.7751    4.8151    4.8056 H         1 ****        0.0000 
     69 H           0.0296    3.2748    5.2864 H         1 ****        0.0000 
     70 H           1.7826    3.3667    4.9851 H         1 ****        0.0000 
@<TRIPOS>BOND
     1    1   23 1    
     2    1   31 1    
     3    1   54 1    
     4    2   29 1    
     5    3    6 1    
     6    3    9 1    
     7    3   37 1    
     8    4   30 1    
     9    4   34 1    
    10    4   55 1    
    11    5   30 1    
    12    6   11 1    
    13    6   38 1    
    14    7   32 1    
    15    7   33 1    
    16    7   56 1    
    17    8   31 1    
    18    9   13 1    
    19    9   39 1    
    20   10   32 1    
    21   11   26 1    
    22   11   40 1    
    23   12   27 1    
    24   12   28 1    
    25   13   26 1    
    26   13   41 1    
    27   14   18 1    
    28   14   24 1    
    29   14   42 1    
    30   15   19 1    
    31   15   24 1    
    32   15   43 1    
    33   16   20 1    
    34   16   25 1    
    35   16   44 1    
    36   17   21 1    
    37   17   25 1    
    38   17   45 1    
    39   18   27 1    
    40   18   46 1    
    41   19   27 1    
    42   19   47 1    
    43   20   28 1    
    44   20   48 1    
    45   21   28 1    
    46   21   49 1    
    47   22   24 1    
    48   22   33 1    
    49   22   50 1    
    50   22   51 1    
    51   23   29 1    
    52   23   52 1    
    53   23   53 1    
    54   25   29 1    
    55   26   34 1    
    56   30   33 1    
    57   31   34 1    
    58   32   57 1    
    59   33   35 1    
    60   34   36 1    
    61   57   58 1    
    62   58   59 1    
    63   58   63 1    
    64   58   67 1    
    65   59   60 1    
    66   59   61 1    
    67   59   62 1    
    68   63   64 1    
    69   63   65 1    
    70   63   66 1    
    71   67   68 1    
    72   67   69 1    
    73   67   70 1    
@<TRIPOS>SUBSTRUCTURE
     1 ****        1 GROUP             0       ****    0 ROOT    
@<TRIPOS>MOLECULE
Cpd2-9-MRC
70   73    1
SMALL
USER_CHARGES


@<TRIPOS>ATOM
      1 N          -3.2389    2.1046   -0.3920 N.3       1 ****        0.0000 
      2 O          -6.6096    1.5385   -0.7155 O.3       1 ****        0.0000 
      3 C           0.6748    5.6121    0.8556 C.3       1 ****        0.0000 
      4 N           0.0182    0.6481   -0.0912 N.3       1 ****        0.0000 
      5 O           0.9543    0.4959    1.9657 O.3       1 ****        0.0000 
      6 C           1.1470    4.7997   -0.1760 C.3       1 ****        0.0000 
      7 N           3.2589   -0.2510    0.1881 N.3       1 ****        0.0000 
      8 O          -1.7179    1.4639   -1.9579 O.3       1 ****        0.0000 
      9 C          -0.2969    5.1281    1.7298 C.3       1 ****        0.0000 
     10 O           2.7979    0.9731   -1.6782 O.3       1 ****        0.0000 
     11 C           0.6442    3.5100   -0.3419 C.3       1 ****        0.0000 
     12 O          -3.3743   -3.8885    0.3370 O.3       1 ****        0.0000 
     13 C          -0.8011    3.8388    1.5638 C.3       1 ****        0.0000 
     14 C           0.2739   -3.6797   -0.0104 C.3       1 ****        0.0000 
     15 C          -0.4185   -2.4079    1.9125 C.3       1 ****        0.0000 
     16 C          -3.9109   -0.7272   -1.4278 C.3       1 ****        0.0000 
     17 C          -5.6837   -1.0561    0.1836 C.3       1 ****        0.0000 
     18 C          -1.0357   -4.1204   -0.2057 C.3       1 ****        0.0000 
     19 C          -1.7291   -2.8321    1.7248 C.3       1 ****        0.0000 
     20 C          -3.3967   -1.9753   -1.1217 C.3       1 ****        0.0000 
     21 C          -5.1622   -2.3048    0.5137 C.3       1 ****        0.0000 
     22 C           1.9449   -2.1236    1.0734 C.3       1 ****        0.0000 
     23 C          -4.3847    2.2044   -1.2788 C.3       1 ****        0.0000 
     24 C           0.5885   -2.7855    1.0171 C.3       1 ****        0.0000 
     25 C          -5.0335   -0.2396   -0.7481 C.3       1 ****        0.0000 
     26 C          -0.3395    3.0300    0.5252 C.3       1 ****        0.0000 
     27 C          -2.0323   -3.6439    0.6346 C.3       1 ****        0.0000 
     28 C          -3.9882   -2.7296   -0.1048 C.3       1 ****        0.0000 
     29 C          -5.4675    1.1736   -0.9183 C.3       1 ****        0.0000 
     30 C           0.9246    0.1647    0.7841 C.3       1 ****        0.0000 
     31 C          -2.0060    1.7243   -0.7952 C.3       1 ****        0.0000 
     32 C           3.5413    0.7026   -0.7467 C.3       1 ****        0.0000 
     33 C           1.9355   -0.8463    0.2184 C.3       1 ****        0.0000 
     34 C          -0.9452    1.6474    0.3143 C.3       1 ****        0.0000 
     35 H           1.6674   -1.1009   -0.8115 H         1 ****        0.0000 
     36 H          -1.4095    1.3175    1.2503 H         1 ****        0.0000 
     37 H           1.0706    6.6143    0.9825 H         1 ****        0.0000 
     38 H           1.9088    5.1717   -0.8540 H         1 ****        0.0000 
     39 H          -0.6555    5.7480    2.5454 H         1 ****        0.0000 
     40 H           1.0268    2.8683   -1.1343 H         1 ****        0.0000 
     41 H          -1.5451    3.4562    2.2593 H         1 ****        0.0000 
     42 H           1.0525   -4.0027   -0.6973 H         1 ****        0.0000 
     43 H          -0.1811   -1.7330    2.7294 H         1 ****        0.0000 
     44 H          -3.4104   -0.1243   -2.1776 H         1 ****        0.0000 
     45 H          -6.5649   -0.6779    0.6933 H         1 ****        0.0000 
     46 H          -1.2966   -4.7704   -1.0351 H         1 ****        0.0000 
     47 H          -2.5285   -2.4943    2.3780 H         1 ****        0.0000 
     48 H          -2.5032   -2.3394   -1.6169 H         1 ****        0.0000 
     49 H          -5.6114   -2.9221    1.2842 H         1 ****        0.0000 
     50 H           2.2000   -1.8539    2.1034 H         1 ****        0.0000 
     51 H           2.7231   -2.7859    0.6839 H         1 ****        0.0000 
     52 H          -4.0283    2.0462   -2.2998 H         1 ****        0.0000 
     53 H          -4.8398    3.1947   -1.2141 H         1 ****        0.0000 
     54 H          -3.3853    2.2934    0.5906 H         1 ****        0.0000 
     55 H           0.1077    0.4632   -1.0854 H         1 ****        0.0000 
     56 H           3.8064   -0.2409    1.0394 H         1 ****        0.0000 
     57 O           4.7375    1.2547   -0.5042 O.3       1 ****        0.0000 
     58 C           5.2707    2.3025   -1.3738 C.3       1 ****        0.0000 
     59 C           5.5025    1.7488   -2.7765 C.3       1 ****        0.0000 
     60 H           6.1348    0.8569   -2.7278 H         1 ****        0.0000 
     61 H           4.5600    1.4960   -3.2628 H         1 ****        0.0000 
     62 H           6.0192    2.5028   -3.3772 H         1 ****        0.0000 
     63 C           6.5967    2.6489   -0.7059 C.3       1 ****        0.0000 
     64 H           7.1074    3.4262   -1.2803 H         1 ****        0.0000 
     65 H           6.4278    3.0172    0.3101 H         1 ****        0.0000 
     66 H           7.2408    1.7675   -0.6585 H         1 ****        0.0000 
     67 C           4.3382    3.5101   -1.3718 C.3       1 ****        0.0000 
     68 H           3.4106    3.2965   -1.9042 H         1 ****        0.0000 
     69 H           4.1037    3.7995   -0.3429 H         1 ****        0.0000 
     70 H           4.8404    4.3511   -1.8610 H         1 ****        0.0000 
@<TRIPOS>BOND
     1    1   23 1    
     2    1   31 1    
     3    1   54 1    
     4    2   29 1    
     5    3    6 1    
     6    3    9 1    
     7    3   37 1    
     8    4   30 1    
     9    4   34 1    
    10    4   55 1    
    11    5   30 1    
    12    6   11 1    
    13    6   38 1    
    14    7   32 1    
    15    7   33 1    
    16    7   56 1    
    17    8   31 1    
    18    9   13 1    
    19    9   39 1    
    20   10   32 1    
    21   11   26 1    
    22   11   40 1    
    23   12   27 1    
    24   12   28 1    
    25   13   26 1    
    26   13   41 1    
    27   14   18 1    
    28   14   24 1    
    29   14   42 1    
    30   15   19 1    
    31   15   24 1    
    32   15   43 1    
    33   16   20 1    
    34   16   25 1    
    35   16   44 1    
    36   17   21 1    
    37   17   25 1    
    38   17   45 1    
    39   18   27 1    
    40   18   46 1    
    41   19   27 1    
    42   19   47 1    
    43   20   28 1    
    44   20   48 1    
    45   21   28 1    
    46   21   49 1    
    47   22   24 1    
    48   22   33 1    
    49   22   50 1    
    50   22   51 1    
    51   23   29 1    
    52   23   52 1    
    53   23   53 1    
    54   25   29 1    
    55   26   34 1    
    56   30   33 1    
    57   31   34 1    
    58   32   57 1    
    59   33   35 1    
    60   34   36 1    
    61   57   58 1    
    62   58   59 1    
    63   58   63 1    
    64   58   67 1    
    65   59   60 1    
    66   59   61 1    
    67   59   62 1    
    68   63   64 1    
    69   63   65 1    
    70   63   66 1    
    71   67   68 1    
    72   67   69 1    
    73   67   70 1    
@<TRIPOS>SUBSTRUCTURE
     1 ****        1 GROUP             0       ****    0 ROOT    
@<TRIPOS>MOLECULE
Cpd2-10
70   73    1
SMALL
USER_CHARGES


@<TRIPOS>ATOM
      1 N          -2.9499    1.8339   -1.7944 N.3       1 ****        0.0000 
      2 O          -6.1111    1.7231   -0.1799 O.3       1 ****        0.0000 
      3 C           0.0533   -0.5509   -4.6459 C.3       1 ****        0.0000 
      4 N          -0.3370    0.5767    0.3070 N.3       1 ****        0.0000 
      5 O           1.8527    0.3359   -0.2555 O.3       1 ****        0.0000 
      6 C           0.5043    0.7482   -4.4162 C.3       1 ****        0.0000 
      7 N           0.1634   -0.1882    2.8964 N.3       1 ****        0.0000 
      8 O          -2.7059    1.7726    0.4459 O.3       1 ****        0.0000 
      9 C          -0.6334   -1.2341   -3.6395 C.3       1 ****        0.0000 
     10 O           0.7682    1.9610    3.3466 O.3       1 ****        0.0000 
     11 C           0.2733    1.3624   -3.1846 C.3       1 ****        0.0000 
     12 O          -3.3001   -4.0125   -0.0655 O.3       1 ****        0.0000 
     13 C          -0.8656   -0.6172   -2.4140 C.3       1 ****        0.0000 
     14 C           0.1886   -2.8875   -0.0265 C.3       1 ****        0.0000 
     15 C          -0.5543   -3.2098    2.2367 C.3       1 ****        0.0000 
     16 C          -4.3120   -0.9276   -1.7724 C.3       1 ****        0.0000 
     17 C          -4.9780   -0.8121    0.5491 C.3       1 ****        0.0000 
     18 C          -1.0100   -3.4169   -0.4961 C.3       1 ****        0.0000 
     19 C          -1.7726   -3.7129    1.7788 C.3       1 ****        0.0000 
     20 C          -3.8851   -2.2407   -1.5857 C.3       1 ****        0.0000 
     21 C          -4.5212   -2.1079    0.7524 C.3       1 ****        0.0000 
     22 C           1.5796   -1.9033    1.8287 C.3       1 ****        0.0000 
     23 C          -4.3583    2.1701   -1.7127 C.3       1 ****        0.0000 
     24 C           0.4065   -2.7192    1.3449 C.3       1 ****        0.0000 
     25 C          -4.8294   -0.1976   -0.6988 C.3       1 ****        0.0000 
     26 C          -0.4094    0.6808   -2.1784 C.3       1 ****        0.0000 
     27 C          -2.0123   -3.7481    0.4100 C.3       1 ****        0.0000 
     28 C          -3.9338   -2.7945   -0.3096 C.3       1 ****        0.0000 
     29 C          -5.1842    1.2483   -0.8052 C.3       1 ****        0.0000 
     30 C           0.9405    0.2105    0.5551 C.3       1 ****        0.0000 
     31 C          -2.2173    1.6699   -0.6762 C.3       1 ****        0.0000 
     32 C           0.0178    1.0168    3.5224 C.3       1 ****        0.0000 
     33 C           1.2263   -0.4024    1.9401 C.3       1 ****        0.0000 
     34 C          -0.7168    1.3570   -0.8580 C.3       1 ****        0.0000 
     35 H           2.1109    0.1314    2.2976 H         1 ****        0.0000 
     36 H          -0.1965    2.3264   -0.8348 H         1 ****        0.0000 
     37 H           0.2376   -1.0298   -5.6014 H         1 ****        0.0000 
     38 H           1.0438    1.2818   -5.1927 H         1 ****        0.0000 
     39 H          -0.9871   -2.2462   -3.8157 H         1 ****        0.0000 
     40 H           0.6392    2.3691   -3.0001 H         1 ****        0.0000 
     41 H          -1.4035   -1.1333   -1.6244 H         1 ****        0.0000 
     42 H           0.9412   -2.5505   -0.7363 H         1 ****        0.0000 
     43 H          -0.3703   -3.1622    3.3081 H         1 ****        0.0000 
     44 H          -4.2146   -0.4732   -2.7545 H         1 ****        0.0000 
     45 H          -5.4017   -0.2409    1.3699 H         1 ****        0.0000 
     46 H          -1.1990   -3.5107   -1.5605 H         1 ****        0.0000 
     47 H          -2.5466   -4.0281    2.4710 H         1 ****        0.0000 
     48 H          -3.4620   -2.8132   -2.4049 H         1 ****        0.0000 
     49 H          -4.5698   -2.5733    1.7308 H         1 ****        0.0000 
     50 H           1.9128   -2.2392    2.8157 H         1 ****        0.0000 
     51 H           2.4217   -1.9888    1.1364 H         1 ****        0.0000 
     52 H          -4.7766    2.1311   -2.7221 H         1 ****        0.0000 
     53 H          -4.5020    3.1812   -1.3232 H         1 ****        0.0000 
     54 H          -2.5188    1.6778   -2.6954 H         1 ****        0.0000 
     55 H          -1.0102    0.5682    1.0646 H         1 ****        0.0000 
     56 H          -0.5473   -0.8916    3.0444 H         1 ****        0.0000 
     57 O          -1.0507    0.9904    4.3323 O.3       1 ****        0.0000 
     58 C          -1.4805    2.1939    5.0453 C.3       1 ****        0.0000 
     59 C          -2.7307    1.7189    5.7763 C.3       1 ****        0.0000 
     60 H          -3.4842    1.3773    5.0616 H         1 ****        0.0000 
     61 H          -2.4875    0.8954    6.4543 H         1 ****        0.0000 
     62 H          -3.1503    2.5416    6.3621 H         1 ****        0.0000 
     63 C          -1.8285    3.2948    4.0474 C.3       1 ****        0.0000 
     64 H          -2.3046    4.1213    4.5830 H         1 ****        0.0000 
     65 H          -0.9379    3.6696    3.5413 H         1 ****        0.0000 
     66 H          -2.5321    2.9169    3.2998 H         1 ****        0.0000 
     67 C          -0.4070    2.6238    6.0398 C.3       1 ****        0.0000 
     68 H          -0.1418    1.7874    6.6927 H         1 ****        0.0000 
     69 H           0.4888    2.9787    5.5278 H         1 ****        0.0000 
     70 H          -0.8010    3.4332    6.6620 H         1 ****        0.0000 
@<TRIPOS>BOND
     1    1   23 1    
     2    1   31 1    
     3    1   54 1    
     4    2   29 1    
     5    3    6 1    
     6    3    9 1    
     7    3   37 1    
     8    4   30 1    
     9    4   34 1    
    10    4   55 1    
    11    5   30 1    
    12    6   11 1    
    13    6   38 1    
    14    7   32 1    
    15    7   33 1    
    16    7   56 1    
    17    8   31 1    
    18    9   13 1    
    19    9   39 1    
    20   10   32 1    
    21   11   26 1    
    22   11   40 1    
    23   12   27 1    
    24   12   28 1    
    25   13   26 1    
    26   13   41 1    
    27   14   18 1    
    28   14   24 1    
    29   14   42 1    
    30   15   19 1    
    31   15   24 1    
    32   15   43 1    
    33   16   20 1    
    34   16   25 1    
    35   16   44 1    
    36   17   21 1    
    37   17   25 1    
    38   17   45 1    
    39   18   27 1    
    40   18   46 1    
    41   19   27 1    
    42   19   47 1    
    43   20   28 1    
    44   20   48 1    
    45   21   28 1    
    46   21   49 1    
    47   22   24 1    
    48   22   33 1    
    49   22   50 1    
    50   22   51 1    
    51   23   29 1    
    52   23   52 1    
    53   23   53 1    
    54   25   29 1    
    55   26   34 1    
    56   30   33 1    
    57   31   34 1    
    58   32   57 1    
    59   33   35 1    
    60   34   36 1    
    61   57   58 1    
    62   58   59 1    
    63   58   63 1    
    64   58   67 1    
    65   59   60 1    
    66   59   61 1    
    67   59   62 1    
    68   63   64 1    
    69   63   65 1    
    70   63   66 1    
    71   67   68 1    
    72   67   69 1    
    73   67   70 1    
@<TRIPOS>SUBSTRUCTURE
     1 ****        1 GROUP             0       ****    0 ROOT    
