@<TRIPOS>MOLECULE
Cpd2-500-MEC
70   73    1
SMALL
USER_CHARGES


@<TRIPOS>ATOM
      1 C1          6.7309    0.0661   -2.0654 C.3       1 UNK         0.0000 
      2 H2          6.0453   -0.5615   -2.6356 H         1 UNK         0.0000 
      3 H3          6.4135    1.1104   -2.1425 H         1 UNK         0.0000 
      4 H4          7.7314   -0.0209   -2.4989 H         1 UNK         0.0000 
      5 C5          6.7868   -0.3579   -0.6010 C.3       1 UNK         0.0000 
      6 C6          7.1290   -1.8353   -0.4344 C.3       1 UNK         0.0000 
      7 H7          8.1475   -2.0071   -0.7946 H         1 UNK         0.0000 
      8 H8          7.0879   -2.1136    0.6230 H         1 UNK         0.0000 
      9 H9          6.4446   -2.4683   -1.0000 H         1 UNK         0.0000 
     10 C10         7.7753    0.5098    0.1693 C.3       1 UNK         0.0000 
     11 H11         7.7833    0.2326    1.2272 H         1 UNK         0.0000 
     12 H12         8.7807    0.3712   -0.2365 H         1 UNK         0.0000 
     13 H13         7.5050    1.5659    0.0830 H         1 UNK         0.0000 
     14 O14         5.5150   -0.0584    0.0586 O.3       1 UNK         0.0000 
     15 C15         4.3739   -0.6404   -0.3398 C.2       1 UNK         0.0000 
     16 O16         4.2606   -1.4497   -1.2484 O.2       1 UNK         0.0000 
     17 N17         3.3281   -0.1842    0.4020 N.am      1 UNK         0.0000 
     18 H18         3.5304    0.3499    1.2383 H         1 UNK         0.0000 
     19 C19         2.0220   -0.8055    0.2948 C.3       1 UNK         0.0000 
     20 C20         1.0100    0.2200    0.8070 C.2       1 UNK         0.0000 
     21 N21         0.0392    0.6030   -0.0443 N.am      1 UNK         0.0000 
     22 H22         0.0051    0.2641   -0.9993 H         1 UNK         0.0000 
     23 O23         1.1031    0.6564    1.9533 O.2       1 UNK         0.0000 
     24 H24         1.8443   -1.0348   -0.7596 H         1 UNK         0.0000 
     25 C25         1.9389   -2.1058    1.1269 C.3       1 UNK         0.0000 
     26 H26         2.1641   -1.8516    2.1677 H         1 UNK         0.0000 
     27 H27         2.7199   -2.7777    0.7584 H         1 UNK         0.0000 
     28 C28         0.5771   -2.7412    1.0134 C.ar      1 UNK         0.0000 
     29 C29        -0.4517   -2.3557    1.8821 C.ar      1 UNK         0.0000 
     30 C30        -1.7566   -2.7877    1.6753 C.ar      1 UNK         0.0000 
     31 H31        -2.5672   -2.4525    2.3156 H         1 UNK         0.0000 
     32 H32        -0.2325   -1.6796    2.7046 H         1 UNK         0.0000 
     33 C33         0.2834   -3.6349   -0.0208 C.ar      1 UNK         0.0000 
     34 H34         1.0762   -3.9595   -0.6899 H         1 UNK         0.0000 
     35 C35        -1.0216   -4.0815   -0.2376 C.ar      1 UNK         0.0000 
     36 H36        -1.2636   -4.7368   -1.0683 H         1 UNK         0.0000 
     37 C37        -2.0345   -3.6154    0.5898 C.ar      1 UNK         0.0000 
     38 O38        -3.3678   -3.8996    0.2866 O.3       1 UNK         0.0000 
     39 C39        -4.0123   -2.7497   -0.1398 C.ar      1 UNK         0.0000 
     40 C40        -5.1377   -2.3034    0.5475 C.ar      1 UNK         0.0000 
     41 C41        -5.6673   -1.0534    0.2311 C.ar      1 UNK         0.0000 
     42 H42        -6.5052   -0.6563    0.7960 H         1 UNK         0.0000 
     43 H43        -5.5403   -2.8992    1.3596 H         1 UNK         0.0000 
     44 C44        -3.4800   -2.0223   -1.2061 C.ar      1 UNK         0.0000 
     45 H45        -2.6258   -2.4089   -1.7518 H         1 UNK         0.0000 
     46 C46        -3.9970   -0.7712   -1.4968 C.ar      1 UNK         0.0000 
     47 H47        -3.5378   -0.1816   -2.2829 H         1 UNK         0.0000 
     48 C48        -5.0667   -0.2603   -0.7518 C.ar      1 UNK         0.0000 
     49 C49        -5.4832    1.1597   -0.9078 C.2       1 UNK         0.0000 
     50 O50        -6.6218    1.5378   -0.7048 O.2       1 UNK         0.0000 
     51 C51        -4.3820    2.1739   -1.2523 C.3       1 UNK         0.0000 
     52 H52        -4.0283    2.0195   -2.2755 H         1 UNK         0.0000 
     53 H53        -4.8141    3.1734   -1.1758 H         1 UNK         0.0000 
     54 N54        -3.2411    2.0434   -0.3624 N.am      1 UNK         0.0000 
     55 H55        -3.3794    2.2725    0.6136 H         1 UNK         0.0000 
     56 C56        -2.0227    1.6174   -0.7541 C.2       1 UNK         0.0000 
     57 O57        -1.7406    1.3052   -1.9076 O.2       1 UNK         0.0000 
     58 C58        -0.9551    1.5822    0.3501 C.3       1 UNK         0.0000 
     59 H59        -1.4058    1.2653    1.2977 H         1 UNK         0.0000 
     60 C60        -0.3802    2.9838    0.5179 C.ar      1 UNK         0.0000 
     61 C61         0.4753    3.5089   -0.4537 C.ar      1 UNK         0.0000 
     62 H62         0.7573    2.8999   -1.3088 H         1 UNK         0.0000 
     63 C63         0.9687    4.8055   -0.3235 C.ar      1 UNK         0.0000 
     64 H64         1.6348    5.2072   -1.0805 H         1 UNK         0.0000 
     65 C65         0.6072    5.5856    0.7765 C.ar      1 UNK         0.0000 
     66 H66         0.9933    6.5948    0.8780 H         1 UNK         0.0000 
     67 C67        -0.2461    5.0625    1.7472 C.ar      1 UNK         0.0000 
     68 H68        -0.5234    5.6605    2.6095 H         1 UNK         0.0000 
     69 C69        -0.7377    3.7633    1.6183 C.ar      1 UNK         0.0000 
     70 H70        -1.3886    3.3516    2.3857 H         1 UNK         0.0000 
@<TRIPOS>BOND
     1    1    5 1    
     2    1    2 1    
     3    1    3 1    
     4    1    4 1    
     5    5    6 1    
     6    5   14 1    
     7    5   10 1    
     8    6    8 1    
     9    6    7 1    
    10    6    9 1    
    11   10   11 1    
    12   10   12 1    
    13   10   13 1    
    14   14   15 1    
    15   15   17 am   BACKBONE|DICT|INTERRES
    16   15   16 2    
    17   17   18 1    
    18   17   19 1    
    19   19   24 1    
    20   19   20 1    
    21   19   25 1    
    22   20   23 2    
    23   20   21 am   BACKBONE|DICT|INTERRES
    24   21   58 1    
    25   21   22 1    
    26   25   26 1    
    27   25   27 1    
    28   25   28 1    
    29   28   29 ar   
    30   28   33 ar   
    31   29   32 1    
    32   29   30 ar   
    33   30   31 1    
    34   30   37 ar   
    35   33   34 1    
    36   33   35 ar   
    37   35   37 ar   
    38   35   36 1    
    39   37   38 1    
    40   38   39 1    
    41   39   40 ar   
    42   39   44 ar   
    43   40   43 1    
    44   40   41 ar   
    45   41   42 1    
    46   41   48 ar   
    47   44   45 1    
    48   44   46 ar   
    49   46   48 ar   
    50   46   47 1    
    51   48   49 1    
    52   49   50 2    
    53   49   51 1    
    54   51   53 1    
    55   51   54 1    
    56   51   52 1    
    57   54   55 1    
    58   54   56 am   BACKBONE|DICT|INTERRES
    59   56   58 1    
    60   56   57 2    
    61   58   60 1    
    62   58   59 1    
    63   60   69 ar   
    64   60   61 ar   
    65   61   63 ar   
    66   61   62 1    
    67   63   65 ar   
    68   63   64 1    
    69   65   66 1    
    70   65   67 ar   
    71   67   68 1    
    72   67   69 ar   
    73   69   70 1    
@<TRIPOS>SUBSTRUCTURE
     1 UNK         1 GROUP             0       ****    0 ROOT    
@<TRIPOS>MOLECULE
Cpd2-1000-MRC
70   73    1
SMALL
USER_CHARGES


@<TRIPOS>ATOM
      1 C1          4.4321    3.5307   -1.2621 C.3       1 UNK         0.0000 
      2 H2          4.9428    4.3721   -1.7396 H         1 UNK         0.0000 
      3 H3          3.4879    3.3527   -1.7793 H         1 UNK         0.0000 
      4 H4          4.2271    3.7984   -0.2206 H         1 UNK         0.0000 
      5 C5          5.3350    2.3024   -1.3179 C.3       1 UNK         0.0000 
      6 C6          5.5348    1.7892   -2.7402 C.3       1 UNK         0.0000 
      7 H7          4.5796    1.5825   -3.2243 H         1 UNK         0.0000 
      8 H8          6.0672    2.5480   -3.3210 H         1 UNK         0.0000 
      9 H9          6.1398    0.8777   -2.7299 H         1 UNK         0.0000 
     10 C10         6.6776    2.5945   -0.6583 C.3       1 UNK         0.0000 
     11 H11         6.5322    2.9295    0.3724 H         1 UNK         0.0000 
     12 H12         7.3032    1.6976   -0.6534 H         1 UNK         0.0000 
     13 H13         7.1966    3.3805   -1.2126 H         1 UNK         0.0000 
     14 O14         4.7871    1.2384   -0.4745 O.3       1 UNK         0.0000 
     15 C15         3.5756    0.7209   -0.7154 C.2       1 UNK         0.0000 
     16 O16         2.8242    1.0387   -1.6264 O.2       1 UNK         0.0000 
     17 N17         3.2807   -0.2500    0.1936 N.am      1 UNK         0.0000 
     18 H18         3.8615   -0.3142    1.0196 H         1 UNK         0.0000 
     19 C19         1.9540   -0.8343    0.2158 C.3       1 UNK         0.0000 
     20 C20         0.9489    0.1807    0.7868 C.2       1 UNK         0.0000 
     21 N21         0.0037    0.6265   -0.0650 N.am      1 UNK         0.0000 
     22 H22         0.0571    0.4122   -1.0548 H         1 UNK         0.0000 
     23 O23         1.0169    0.5459    1.9587 O.2       1 UNK         0.0000 
     24 H24         1.6822   -1.0833   -0.8147 H         1 UNK         0.0000 
     25 C25         1.9553   -2.1149    1.0668 C.3       1 UNK         0.0000 
     26 H26         2.2144   -1.8502    2.0975 H         1 UNK         0.0000 
     27 H27         2.7302   -2.7797    0.6742 H         1 UNK         0.0000 
     28 C28         0.5981   -2.7725    1.0101 C.ar      1 UNK         0.0000 
     29 C29        -0.4097   -2.3918    1.9045 C.ar      1 UNK         0.0000 
     30 C30        -1.7202   -2.8184    1.7199 C.ar      1 UNK         0.0000 
     31 H31        -2.5187   -2.4785    2.3728 H         1 UNK         0.0000 
     32 H32        -0.1732   -1.7146    2.7206 H         1 UNK         0.0000 
     33 C33         0.2843   -3.6714   -0.0138 C.ar      1 UNK         0.0000 
     34 H34         1.0622   -3.9955   -0.7003 H         1 UNK         0.0000 
     35 C35        -1.0252   -4.1148   -0.2059 C.ar      1 UNK         0.0000 
     36 H36        -1.2850   -4.7672   -1.0334 H         1 UNK         0.0000 
     37 C37        -2.0218   -3.6374    0.6350 C.ar      1 UNK         0.0000 
     38 O38        -3.3629   -3.8916    0.3411 O.3       1 UNK         0.0000 
     39 C39        -3.9855   -2.7376   -0.1036 C.ar      1 UNK         0.0000 
     40 C40        -5.1569   -2.3153    0.5198 C.ar      1 UNK         0.0000 
     41 C41        -5.6874   -1.0708    0.1846 C.ar      1 UNK         0.0000 
     42 H42        -6.5654   -0.6946    0.7009 H         1 UNK         0.0000 
     43 H43        -5.5990   -2.9273    1.2987 H         1 UNK         0.0000 
     44 C44        -3.4014   -1.9868   -1.1270 C.ar      1 UNK         0.0000 
     45 H45        -2.5106   -2.3508   -1.6272 H         1 UNK         0.0000 
     46 C46        -3.9222   -0.7419   -1.4359 C.ar      1 UNK         0.0000 
     47 H47        -3.4294   -0.1380   -2.1910 H         1 UNK         0.0000 
     48 C48        -5.0450   -0.2575   -0.7545 C.ar      1 UNK         0.0000 
     49 C49        -5.4839    1.1526   -0.9327 C.2       1 UNK         0.0000 
     50 O50        -6.6376    1.5069   -0.7750 O.2       1 UNK         0.0000 
     51 C51        -4.3978    2.1916   -1.2503 C.3       1 UNK         0.0000 
     52 H52        -4.0367    2.0597   -2.2745 H         1 UNK         0.0000 
     53 H53        -4.8508    3.1809   -1.1623 H         1 UNK         0.0000 
     54 N54        -3.2579    2.0671   -0.3592 N.am      1 UNK         0.0000 
     55 H55        -3.4152    2.2209    0.6284 H         1 UNK         0.0000 
     56 C56        -2.0229    1.7050   -0.7636 C.2       1 UNK         0.0000 
     57 O57        -1.7244    1.4710   -1.9314 O.2       1 UNK         0.0000 
     58 C58        -0.9642    1.6210    0.3466 C.3       1 UNK         0.0000 
     59 H59        -1.4313    1.2874    1.2801 H         1 UNK         0.0000 
     60 C60        -0.3614    3.0050    0.5629 C.ar      1 UNK         0.0000 
     61 C61         0.6814    3.4623   -0.2467 C.ar      1 UNK         0.0000 
     62 H62         1.1143    2.8031   -0.9967 H         1 UNK         0.0000 
     63 C63         1.1795    4.7537   -0.0737 C.ar      1 UNK         0.0000 
     64 H64         1.9883    5.1078   -0.7056 H         1 UNK         0.0000 
     65 C65         0.6457    5.5906    0.9071 C.ar      1 UNK         0.0000 
     66 H66         1.0385    6.5935    1.0395 H         1 UNK         0.0000 
     67 C67        -0.3866    5.1295    1.7235 C.ar      1 UNK         0.0000 
     68 H68        -0.7975    5.7685    2.4985 H         1 UNK         0.0000 
     69 C69        -0.8873    3.8397    1.5508 C.ar      1 UNK         0.0000 
     70 H70        -1.6814    3.4790    2.2004 H         1 UNK         0.0000 
@<TRIPOS>BOND
     1    1    4 1    
     2    1    2 1    
     3    1    3 1    
     4    1    5 1    
     5    5   10 1    
     6    5   14 1    
     7    5    6 1    
     8    6    7 1    
     9    6    8 1    
    10    6    9 1    
    11   10   11 1    
    12   10   12 1    
    13   10   13 1    
    14   14   15 1    
    15   15   17 am   BACKBONE|DICT|INTERRES
    16   15   16 2    
    17   17   18 1    
    18   17   19 1    
    19   19   24 1    
    20   19   20 1    
    21   19   25 1    
    22   20   23 2    
    23   20   21 am   BACKBONE|DICT|INTERRES
    24   21   58 1    
    25   21   22 1    
    26   25   26 1    
    27   25   27 1    
    28   25   28 1    
    29   28   29 ar   
    30   28   33 ar   
    31   29   32 1    
    32   29   30 ar   
    33   30   31 1    
    34   30   37 ar   
    35   33   34 1    
    36   33   35 ar   
    37   35   37 ar   
    38   35   36 1    
    39   37   38 1    
    40   38   39 1    
    41   39   40 ar   
    42   39   44 ar   
    43   40   43 1    
    44   40   41 ar   
    45   41   42 1    
    46   41   48 ar   
    47   44   45 1    
    48   44   46 ar   
    49   46   48 ar   
    50   46   47 1    
    51   48   49 1    
    52   49   50 2    
    53   49   51 1    
    54   51   53 1    
    55   51   54 1    
    56   51   52 1    
    57   54   55 1    
    58   54   56 am   BACKBONE|DICT|INTERRES
    59   56   58 1    
    60   56   57 2    
    61   58   60 1    
    62   58   59 1    
    63   60   69 ar   
    64   60   61 ar   
    65   61   63 ar   
    66   61   62 1    
    67   63   65 ar   
    68   63   64 1    
    69   65   66 1    
    70   65   67 ar   
    71   67   68 1    
    72   67   69 ar   
    73   69   70 1    
@<TRIPOS>SUBSTRUCTURE
     1 UNK         1 GROUP             0       ****    0 ROOT    
@<TRIPOS>MOLECULE
Cpd2-1500
70   73    1
SMALL
USER_CHARGES


@<TRIPOS>ATOM
      1 C1          4.4322    3.5311   -1.2612 C.3       1 UNK         0.0000 
      2 H2          4.2268    3.7985   -0.2197 H         1 UNK         0.0000 
      3 H3          4.9432    4.3725   -1.7382 H         1 UNK         0.0000 
      4 H4          3.4884    3.3531   -1.7789 H         1 UNK         0.0000 
      5 C5          5.3353    2.3028   -1.3166 C.3       1 UNK         0.0000 
      6 C6          5.5358    1.7898   -2.7388 C.3       1 UNK         0.0000 
      7 H7          6.1410    0.8783   -2.7283 H         1 UNK         0.0000 
      8 H8          4.5810    1.5830   -3.2236 H         1 UNK         0.0000 
      9 H9          6.0683    2.5487   -3.3193 H         1 UNK         0.0000 
     10 C10         6.6775    2.5950   -0.6564 C.3       1 UNK         0.0000 
     11 H11         6.5317    2.9301    0.3742 H         1 UNK         0.0000 
     12 H12         7.3033    1.6982   -0.6512 H         1 UNK         0.0000 
     13 H13         7.1967    3.3811   -1.2105 H         1 UNK         0.0000 
     14 O14         4.7873    1.2387   -0.4735 O.3       1 UNK         0.0000 
     15 C15         3.5758    0.7211   -0.7147 C.2       1 UNK         0.0000 
     16 O16         2.8246    1.0389   -1.6259 O.2       1 UNK         0.0000 
     17 N17         3.2808   -0.2501    0.1939 N.am      1 UNK         0.0000 
     18 H18         3.8613   -0.3139    1.0202 H         1 UNK         0.0000 
     19 C19         1.9541   -0.8343    0.2159 C.3       1 UNK         0.0000 
     20 C20         0.9490    0.1807    0.7868 C.2       1 UNK         0.0000 
     21 N21         0.0036    0.6264   -0.0649 N.am      1 UNK         0.0000 
     22 H22         0.0569    0.4119   -1.0548 H         1 UNK         0.0000 
     23 O23         1.0170    0.5461    1.9587 O.2       1 UNK         0.0000 
     24 H24         1.6825   -1.0830   -0.8147 H         1 UNK         0.0000 
     25 C25         1.9553   -2.1149    1.0669 C.3       1 UNK         0.0000 
     26 H26         2.2144   -1.8503    2.0976 H         1 UNK         0.0000 
     27 H27         2.7302   -2.7797    0.6743 H         1 UNK         0.0000 
     28 C28         0.5981   -2.7725    1.0101 C.ar      1 UNK         0.0000 
     29 C29        -0.4097   -2.3916    1.9043 C.ar      1 UNK         0.0000 
     30 C30        -1.7202   -2.8183    1.7198 C.ar      1 UNK         0.0000 
     31 H31        -2.5188   -2.4783    2.3726 H         1 UNK         0.0000 
     32 H32        -0.1732   -1.7145    2.7204 H         1 UNK         0.0000 
     33 C33         0.2843   -3.6714   -0.0138 C.ar      1 UNK         0.0000 
     34 H34         1.0622   -3.9955   -0.7003 H         1 UNK         0.0000 
     35 C35        -1.0252   -4.1148   -0.2059 C.ar      1 UNK         0.0000 
     36 H36        -1.2850   -4.7673   -1.0334 H         1 UNK         0.0000 
     37 C37        -2.0218   -3.6374    0.6349 C.ar      1 UNK         0.0000 
     38 O38        -3.3629   -3.8916    0.3409 O.3       1 UNK         0.0000 
     39 C39        -3.9855   -2.7377   -0.1036 C.ar      1 UNK         0.0000 
     40 C40        -5.1568   -2.3152    0.5199 C.ar      1 UNK         0.0000 
     41 C41        -5.6874   -1.0706    0.1847 C.ar      1 UNK         0.0000 
     42 H42        -6.5653   -0.6945    0.7011 H         1 UNK         0.0000 
     43 H43        -5.5989   -2.9271    1.2989 H         1 UNK         0.0000 
     44 C44        -3.4015   -1.9868   -1.1272 C.ar      1 UNK         0.0000 
     45 H45        -2.5107   -2.3509   -1.6273 H         1 UNK         0.0000 
     46 C46        -3.9223   -0.7420   -1.4360 C.ar      1 UNK         0.0000 
     47 H47        -3.4296   -0.1381   -2.1912 H         1 UNK         0.0000 
     48 C48        -5.0451   -0.2575   -0.7545 C.ar      1 UNK         0.0000 
     49 C49        -5.4840    1.1526   -0.9328 C.2       1 UNK         0.0000 
     50 O50        -6.6376    1.5069   -0.7750 O.2       1 UNK         0.0000 
     51 C51        -4.3977    2.1915   -1.2503 C.3       1 UNK         0.0000 
     52 H52        -4.0368    2.0597   -2.2745 H         1 UNK         0.0000 
     53 H53        -4.8508    3.1809   -1.1625 H         1 UNK         0.0000 
     54 N54        -3.2580    2.0672   -0.3593 N.am      1 UNK         0.0000 
     55 H55        -3.4153    2.2206    0.6284 H         1 UNK         0.0000 
     56 C56        -2.0230    1.7049   -0.7636 C.2       1 UNK         0.0000 
     57 O57        -1.7244    1.4708   -1.9314 O.2       1 UNK         0.0000 
     58 C58        -0.9643    1.6208    0.3468 C.3       1 UNK         0.0000 
     59 H59        -1.4316    1.2869    1.2801 H         1 UNK         0.0000 
     60 C60        -0.3617    3.0048    0.5633 C.ar      1 UNK         0.0000 
     61 C61         0.6812    3.4622   -0.2461 C.ar      1 UNK         0.0000 
     62 H62         1.1145    2.8030   -0.9959 H         1 UNK         0.0000 
     63 C63         1.1791    4.7537   -0.0730 C.ar      1 UNK         0.0000 
     64 H64         1.9881    5.1077   -0.7047 H         1 UNK         0.0000 
     65 C65         0.6449    5.5905    0.9075 C.ar      1 UNK         0.0000 
     66 H66         1.0376    6.5936    1.0400 H         1 UNK         0.0000 
     67 C67        -0.3875    5.1292    1.7237 C.ar      1 UNK         0.0000 
     68 H68        -0.7988    5.7684    2.4985 H         1 UNK         0.0000 
     69 C69        -0.8880    3.8395    1.5509 C.ar      1 UNK         0.0000 
     70 H70        -1.6822    3.4787    2.2003 H         1 UNK         0.0000 
@<TRIPOS>BOND
     1    1    2 1    
     2    1    3 1    
     3    1    4 1    
     4    1    5 1    
     5    5   10 1    
     6    5   14 1    
     7    5    6 1    
     8    6    7 1    
     9    6    8 1    
    10    6    9 1    
    11   10   11 1    
    12   10   12 1    
    13   10   13 1    
    14   14   15 1    
    15   15   17 am   BACKBONE|DICT|INTERRES
    16   15   16 2    
    17   17   18 1    
    18   17   19 1    
    19   19   24 1    
    20   19   20 1    
    21   19   25 1    
    22   20   23 2    
    23   20   21 am   BACKBONE|DICT|INTERRES
    24   21   58 1    
    25   21   22 1    
    26   25   26 1    
    27   25   27 1    
    28   25   28 1    
    29   28   29 ar   
    30   28   33 ar   
    31   29   32 1    
    32   29   30 ar   
    33   30   31 1    
    34   30   37 ar   
    35   33   34 1    
    36   33   35 ar   
    37   35   37 ar   
    38   35   36 1    
    39   37   38 1    
    40   38   39 1    
    41   39   40 ar   
    42   39   44 ar   
    43   40   43 1    
    44   40   41 ar   
    45   41   42 1    
    46   41   48 ar   
    47   44   45 1    
    48   44   46 ar   
    49   46   48 ar   
    50   46   47 1    
    51   48   49 1    
    52   49   50 2    
    53   49   51 1    
    54   51   53 1    
    55   51   54 1    
    56   51   52 1    
    57   54   55 1    
    58   54   56 am   BACKBONE|DICT|INTERRES
    59   56   58 1    
    60   56   57 2    
    61   58   60 1    
    62   58   59 1    
    63   60   69 ar   
    64   60   61 ar   
    65   61   63 ar   
    66   61   62 1    
    67   63   65 ar   
    68   63   64 1    
    69   65   66 1    
    70   65   67 ar   
    71   67   68 1    
    72   67   69 ar   
    73   69   70 1    
@<TRIPOS>SUBSTRUCTURE
     1 UNK         1 GROUP             0       ****    0 ROOT    
@<TRIPOS>MOLECULE
Cpd2-2000
70   73    1
SMALL
USER_CHARGES


@<TRIPOS>ATOM
      1 C1          6.7318    0.0655   -2.0645 C.3       1 UNK         0.0000 
      2 H2          7.7325   -0.0216   -2.4976 H         1 UNK         0.0000 
      3 H3          6.0463   -0.5620   -2.6350 H         1 UNK         0.0000 
      4 H4          6.4145    1.1098   -2.1417 H         1 UNK         0.0000 
      5 C5          6.7870   -0.3585   -0.6001 C.3       1 UNK         0.0000 
      6 C6          7.1291   -1.8360   -0.4334 C.3       1 UNK         0.0000 
      7 H7          7.0877   -2.1143    0.6241 H         1 UNK         0.0000 
      8 H8          6.4445   -2.4689   -0.9991 H         1 UNK         0.0000 
      9 H9          8.1476   -2.0079   -0.7934 H         1 UNK         0.0000 
     10 C10         7.7755    0.5090    0.1706 C.3       1 UNK         0.0000 
     11 H11         8.7811    0.3702   -0.2349 H         1 UNK         0.0000 
     12 H12         7.5056    1.5652    0.0840 H         1 UNK         0.0000 
     13 H13         7.7831    0.2319    1.2284 H         1 UNK         0.0000 
     14 O14         5.5152   -0.0588    0.0591 O.3       1 UNK         0.0000 
     15 C15         4.3741   -0.6405   -0.3395 C.2       1 UNK         0.0000 
     16 O16         4.2608   -1.4497   -1.2482 O.2       1 UNK         0.0000 
     17 N17         3.3283   -0.1842    0.4021 N.am      1 UNK         0.0000 
     18 H18         3.5305    0.3497    1.2385 H         1 UNK         0.0000 
     19 C19         2.0221   -0.8054    0.2948 C.3       1 UNK         0.0000 
     20 C20         1.0101    0.2200    0.8070 C.2       1 UNK         0.0000 
     21 N21         0.0392    0.6030   -0.0442 N.am      1 UNK         0.0000 
     22 H22         0.0049    0.2639   -0.9992 H         1 UNK         0.0000 
     23 O23         1.1033    0.6565    1.9533 O.2       1 UNK         0.0000 
     24 H24         1.8445   -1.0345   -0.7597 H         1 UNK         0.0000 
     25 C25         1.9389   -2.1058    1.1267 C.3       1 UNK         0.0000 
     26 H26         2.1643   -1.8517    2.1677 H         1 UNK         0.0000 
     27 H27         2.7199   -2.7777    0.7582 H         1 UNK         0.0000 
     28 C28         0.5772   -2.7413    1.0133 C.ar      1 UNK         0.0000 
     29 C29        -0.4517   -2.3556    1.8819 C.ar      1 UNK         0.0000 
     30 C30        -1.7565   -2.7876    1.6753 C.ar      1 UNK         0.0000 
     31 H31        -2.5671   -2.4523    2.3156 H         1 UNK         0.0000 
     32 H32        -0.2323   -1.6794    2.7044 H         1 UNK         0.0000 
     33 C33         0.2834   -3.6349   -0.0208 C.ar      1 UNK         0.0000 
     34 H34         1.0762   -3.9598   -0.6899 H         1 UNK         0.0000 
     35 C35        -1.0217   -4.0816   -0.2376 C.ar      1 UNK         0.0000 
     36 H36        -1.2637   -4.7370   -1.0681 H         1 UNK         0.0000 
     37 C37        -2.0345   -3.6154    0.5899 C.ar      1 UNK         0.0000 
     38 O38        -3.3679   -3.8995    0.2867 O.3       1 UNK         0.0000 
     39 C39        -4.0123   -2.7496   -0.1398 C.ar      1 UNK         0.0000 
     40 C40        -5.1379   -2.3034    0.5475 C.ar      1 UNK         0.0000 
     41 C41        -5.6674   -1.0534    0.2310 C.ar      1 UNK         0.0000 
     42 H42        -6.5053   -0.6563    0.7958 H         1 UNK         0.0000 
     43 H43        -5.5405   -2.8992    1.3596 H         1 UNK         0.0000 
     44 C44        -3.4799   -2.0223   -1.2061 C.ar      1 UNK         0.0000 
     45 H45        -2.6257   -2.4088   -1.7516 H         1 UNK         0.0000 
     46 C46        -3.9970   -0.7712   -1.4968 C.ar      1 UNK         0.0000 
     47 H47        -3.5377   -0.1817   -2.2829 H         1 UNK         0.0000 
     48 C48        -5.0667   -0.2604   -0.7518 C.ar      1 UNK         0.0000 
     49 C49        -5.4833    1.1597   -0.9079 C.2       1 UNK         0.0000 
     50 O50        -6.6219    1.5378   -0.7049 O.2       1 UNK         0.0000 
     51 C51        -4.3820    2.1739   -1.2524 C.3       1 UNK         0.0000 
     52 H52        -4.0281    2.0194   -2.2756 H         1 UNK         0.0000 
     53 H53        -4.8140    3.1735   -1.1759 H         1 UNK         0.0000 
     54 N54        -3.2412    2.0433   -0.3624 N.am      1 UNK         0.0000 
     55 H55        -3.3796    2.2725    0.6136 H         1 UNK         0.0000 
     56 C56        -2.0228    1.6173   -0.7540 C.2       1 UNK         0.0000 
     57 O57        -1.7405    1.3051   -1.9075 O.2       1 UNK         0.0000 
     58 C58        -0.9552    1.5820    0.3503 C.3       1 UNK         0.0000 
     59 H59        -1.4060    1.2650    1.2979 H         1 UNK         0.0000 
     60 C60        -0.3804    2.9836    0.5184 C.ar      1 UNK         0.0000 
     61 C61        -0.7381    3.7629    1.6187 C.ar      1 UNK         0.0000 
     62 H62        -1.3891    3.3511    2.3861 H         1 UNK         0.0000 
     63 C63        -0.2467    5.0623    1.7479 C.ar      1 UNK         0.0000 
     64 H64        -0.5241    5.6601    2.6102 H         1 UNK         0.0000 
     65 C65         0.6067    5.5855    0.7773 C.ar      1 UNK         0.0000 
     66 H66         0.9928    6.5947    0.8790 H         1 UNK         0.0000 
     67 C67         0.9685    4.8056   -0.3227 C.ar      1 UNK         0.0000 
     68 H68         1.6347    5.2074   -1.0795 H         1 UNK         0.0000 
     69 C69         0.4752    3.5090   -0.4531 C.ar      1 UNK         0.0000 
     70 H70         0.7574    2.9000   -1.3082 H         1 UNK         0.0000 
@<TRIPOS>BOND
     1    1    5 1    
     2    1    2 1    
     3    1    3 1    
     4    1    4 1    
     5    5    6 1    
     6    5   14 1    
     7    5   10 1    
     8    6    7 1    
     9    6    8 1    
    10    6    9 1    
    11   10   13 1    
    12   10   11 1    
    13   10   12 1    
    14   14   15 1    
    15   15   17 am   BACKBONE|DICT|INTERRES
    16   15   16 2    
    17   17   18 1    
    18   17   19 1    
    19   19   24 1    
    20   19   20 1    
    21   19   25 1    
    22   20   23 2    
    23   20   21 am   BACKBONE|DICT|INTERRES
    24   21   58 1    
    25   21   22 1    
    26   25   26 1    
    27   25   27 1    
    28   25   28 1    
    29   28   29 ar   
    30   28   33 ar   
    31   29   32 1    
    32   29   30 ar   
    33   30   31 1    
    34   30   37 ar   
    35   33   34 1    
    36   33   35 ar   
    37   35   37 ar   
    38   35   36 1    
    39   37   38 1    
    40   38   39 1    
    41   39   40 ar   
    42   39   44 ar   
    43   40   43 1    
    44   40   41 ar   
    45   41   42 1    
    46   41   48 ar   
    47   44   45 1    
    48   44   46 ar   
    49   46   48 ar   
    50   46   47 1    
    51   48   49 1    
    52   49   50 2    
    53   49   51 1    
    54   51   53 1    
    55   51   54 1    
    56   51   52 1    
    57   54   55 1    
    58   54   56 am   BACKBONE|DICT|INTERRES
    59   56   58 1    
    60   56   57 2    
    61   58   60 1    
    62   58   59 1    
    63   60   61 ar   
    64   60   69 ar   
    65   61   63 ar   
    66   61   62 1    
    67   63   64 1    
    68   63   65 ar   
    69   65   66 1    
    70   65   67 ar   
    71   67   68 1    
    72   67   69 ar   
    73   69   70 1    
@<TRIPOS>SUBSTRUCTURE
     1 UNK         1 GROUP             0       ****    0 ROOT    
@<TRIPOS>MOLECULE
Cpd2-2500
70   73    1
SMALL
USER_CHARGES


@<TRIPOS>ATOM
      1 C1          6.7285    0.0680   -2.0687 C.3       1 UNK         0.0000 
      2 H2          6.0428   -0.5599   -2.6385 H         1 UNK         0.0000 
      3 H3          6.4102    1.1121   -2.1454 H         1 UNK         0.0000 
      4 H4          7.7287   -0.0181   -2.5031 H         1 UNK         0.0000 
      5 C5          6.7858   -0.3561   -0.6044 C.3       1 UNK         0.0000 
      6 C6          7.1292   -1.8333   -0.4384 C.3       1 UNK         0.0000 
      7 H7          6.4446   -2.4667   -1.0033 H         1 UNK         0.0000 
      8 H8          8.1474   -2.0044   -0.7995 H         1 UNK         0.0000 
      9 H9          7.0892   -2.1117    0.6190 H         1 UNK         0.0000 
     10 C10         7.7745    0.5121    0.1651 C.3       1 UNK         0.0000 
     11 H11         7.5035    1.5680    0.0791 H         1 UNK         0.0000 
     12 H12         7.7835    0.2349    1.2230 H         1 UNK         0.0000 
     13 H13         8.7797    0.3742   -0.2414 H         1 UNK         0.0000 
     14 O14         5.5145   -0.0575    0.0563 O.3       1 UNK         0.0000 
     15 C15         4.3733   -0.6400   -0.3414 C.2       1 UNK         0.0000 
     16 O16         4.2598   -1.4492   -1.2500 O.2       1 UNK         0.0000 
     17 N17         3.3279   -0.1844    0.4011 N.am      1 UNK         0.0000 
     18 H18         3.5304    0.3504    1.2369 H         1 UNK         0.0000 
     19 C19         2.0218   -0.8056    0.2943 C.3       1 UNK         0.0000 
     20 C20         1.0099    0.2199    0.8068 C.2       1 UNK         0.0000 
     21 N21         0.0392    0.6032   -0.0444 N.am      1 UNK         0.0000 
     22 H22         0.0049    0.2643   -0.9995 H         1 UNK         0.0000 
     23 O23         1.1032    0.6561    1.9531 O.2       1 UNK         0.0000 
     24 H24         1.8437   -1.0349   -0.7600 H         1 UNK         0.0000 
     25 C25         1.9390   -2.1059    1.1264 C.3       1 UNK         0.0000 
     26 H26         2.1645   -1.8518    2.1673 H         1 UNK         0.0000 
     27 H27         2.7199   -2.7778    0.7578 H         1 UNK         0.0000 
     28 C28         0.5771   -2.7414    1.0133 C.ar      1 UNK         0.0000 
     29 C29        -0.4515   -2.3558    1.8821 C.ar      1 UNK         0.0000 
     30 C30        -1.7564   -2.7878    1.6755 C.ar      1 UNK         0.0000 
     31 H31        -2.5669   -2.4525    2.3158 H         1 UNK         0.0000 
     32 H32        -0.2321   -1.6797    2.7045 H         1 UNK         0.0000 
     33 C33         0.2833   -3.6352   -0.0207 C.ar      1 UNK         0.0000 
     34 H34         1.0760   -3.9600   -0.6900 H         1 UNK         0.0000 
     35 C35        -1.0217   -4.0819   -0.2374 C.ar      1 UNK         0.0000 
     36 H36        -1.2639   -4.7372   -1.0680 H         1 UNK         0.0000 
     37 C37        -2.0344   -3.6155    0.5902 C.ar      1 UNK         0.0000 
     38 O38        -3.3679   -3.8995    0.2871 O.3       1 UNK         0.0000 
     39 C39        -4.0123   -2.7497   -0.1396 C.ar      1 UNK         0.0000 
     40 C40        -5.1383   -2.3037    0.5470 C.ar      1 UNK         0.0000 
     41 C41        -5.6679   -1.0537    0.2304 C.ar      1 UNK         0.0000 
     42 H42        -6.5062   -0.6570    0.7948 H         1 UNK         0.0000 
     43 H43        -5.5413   -2.8998    1.3588 H         1 UNK         0.0000 
     44 C44        -3.4793   -2.0220   -1.2054 C.ar      1 UNK         0.0000 
     45 H45        -2.6247   -2.4083   -1.7506 H         1 UNK         0.0000 
     46 C46        -3.9964   -0.7710   -1.4962 C.ar      1 UNK         0.0000 
     47 H47        -3.5368   -0.1813   -2.2820 H         1 UNK         0.0000 
     48 C48        -5.0667   -0.2604   -0.7519 C.ar      1 UNK         0.0000 
     49 C49        -5.4833    1.1595   -0.9080 C.2       1 UNK         0.0000 
     50 O50        -6.6220    1.5376   -0.7053 O.2       1 UNK         0.0000 
     51 C51        -4.3820    2.1739   -1.2521 C.3       1 UNK         0.0000 
     52 H52        -4.0282    2.0198   -2.2754 H         1 UNK         0.0000 
     53 H53        -4.8142    3.1734   -1.1755 H         1 UNK         0.0000 
     54 N54        -3.2413    2.0433   -0.3622 N.am      1 UNK         0.0000 
     55 H55        -3.3796    2.2723    0.6139 H         1 UNK         0.0000 
     56 C56        -2.0226    1.6181   -0.7540 C.2       1 UNK         0.0000 
     57 O57        -1.7405    1.3063   -1.9076 O.2       1 UNK         0.0000 
     58 C58        -0.9548    1.5827    0.3501 C.3       1 UNK         0.0000 
     59 H59        -1.4056    1.2661    1.2978 H         1 UNK         0.0000 
     60 C60        -0.3797    2.9842    0.5176 C.ar      1 UNK         0.0000 
     61 C61        -0.7371    3.7641    1.6177 C.ar      1 UNK         0.0000 
     62 H62        -1.3883    3.3527    2.3852 H         1 UNK         0.0000 
     63 C63        -0.2453    5.0632    1.7464 C.ar      1 UNK         0.0000 
     64 H64        -0.5225    5.6614    2.6085 H         1 UNK         0.0000 
     65 C65         0.6083    5.5858    0.7757 C.ar      1 UNK         0.0000 
     66 H66         0.9948    6.5949    0.8771 H         1 UNK         0.0000 
     67 C67         0.9698    4.8054   -0.3240 C.ar      1 UNK         0.0000 
     68 H68         1.6362    5.2067   -1.0810 H         1 UNK         0.0000 
     69 C69         0.4761    3.5088   -0.4540 C.ar      1 UNK         0.0000 
     70 H70         0.7582    2.8995   -1.3089 H         1 UNK         0.0000 
@<TRIPOS>BOND
     1    1    5 1    
     2    1    2 1    
     3    1    3 1    
     4    1    4 1    
     5    5    6 1    
     6    5   14 1    
     7    5   10 1    
     8    6    9 1    
     9    6    7 1    
    10    6    8 1    
    11   10   12 1    
    12   10   11 1    
    13   10   13 1    
    14   14   15 1    
    15   15   17 am   BACKBONE|DICT|INTERRES
    16   15   16 2    
    17   17   18 1    
    18   17   19 1    
    19   19   24 1    
    20   19   20 1    
    21   19   25 1    
    22   20   23 2    
    23   20   21 am   BACKBONE|DICT|INTERRES
    24   21   58 1    
    25   21   22 1    
    26   25   26 1    
    27   25   27 1    
    28   25   28 1    
    29   28   29 ar   
    30   28   33 ar   
    31   29   32 1    
    32   29   30 ar   
    33   30   31 1    
    34   30   37 ar   
    35   33   34 1    
    36   33   35 ar   
    37   35   37 ar   
    38   35   36 1    
    39   37   38 1    
    40   38   39 1    
    41   39   40 ar   
    42   39   44 ar   
    43   40   43 1    
    44   40   41 ar   
    45   41   42 1    
    46   41   48 ar   
    47   44   45 1    
    48   44   46 ar   
    49   46   48 ar   
    50   46   47 1    
    51   48   49 1    
    52   49   50 2    
    53   49   51 1    
    54   51   53 1    
    55   51   54 1    
    56   51   52 1    
    57   54   55 1    
    58   54   56 am   BACKBONE|DICT|INTERRES
    59   56   58 1    
    60   56   57 2    
    61   58   60 1    
    62   58   59 1    
    63   60   61 ar   
    64   60   69 ar   
    65   61   63 ar   
    66   61   62 1    
    67   63   64 1    
    68   63   65 ar   
    69   65   66 1    
    70   65   67 ar   
    71   67   68 1    
    72   67   69 ar   
    73   69   70 1    
@<TRIPOS>SUBSTRUCTURE
     1 UNK         1 GROUP             0       ****    0 ROOT    
@<TRIPOS>MOLECULE
Cpd2-3000
70   73    1
SMALL
USER_CHARGES


@<TRIPOS>ATOM
      1 C1          4.4344    3.5286   -1.2639 C.3       1 UNK         0.0000 
      2 H2          4.2308    3.7964   -0.2222 H         1 UNK         0.0000 
      3 H3          4.9453    4.3695   -1.7419 H         1 UNK         0.0000 
      4 H4          3.4895    3.3516   -1.7801 H         1 UNK         0.0000 
      5 C5          5.3362    2.2996   -1.3209 C.3       1 UNK         0.0000 
      6 C6          5.5338    1.7864   -2.7435 C.3       1 UNK         0.0000 
      7 H7          6.1388    0.8748   -2.7340 H         1 UNK         0.0000 
      8 H8          4.5780    1.5796   -3.2261 H         1 UNK         0.0000 
      9 H9          6.0653    2.5451   -3.3252 H         1 UNK         0.0000 
     10 C10         6.6797    2.5904   -0.6628 C.3       1 UNK         0.0000 
     11 H11         6.5358    2.9257    0.3681 H         1 UNK         0.0000 
     12 H12         7.3046    1.6930   -0.6584 H         1 UNK         0.0000 
     13 H13         7.1989    3.3759   -1.2177 H         1 UNK         0.0000 
     14 O14         4.7884    1.2357   -0.4770 O.3       1 UNK         0.0000 
     15 C15         3.5758    0.7200   -0.7163 C.2       1 UNK         0.0000 
     16 O16         2.8240    1.0382   -1.6269 O.2       1 UNK         0.0000 
     17 N17         3.2804   -0.2498    0.1935 N.am      1 UNK         0.0000 
     18 H18         3.8632   -0.3164    1.0179 H         1 UNK         0.0000 
     19 C19         1.9539   -0.8344    0.2160 C.3       1 UNK         0.0000 
     20 C20         0.9487    0.1806    0.7868 C.2       1 UNK         0.0000 
     21 N21         0.0032    0.6261   -0.0651 N.am      1 UNK         0.0000 
     22 H22         0.0571    0.4121   -1.0551 H         1 UNK         0.0000 
     23 O23         1.0164    0.5458    1.9587 O.2       1 UNK         0.0000 
     24 H24         1.6820   -1.0836   -0.8144 H         1 UNK         0.0000 
     25 C25         1.9553   -2.1148    1.0671 C.3       1 UNK         0.0000 
     26 H26         2.2143   -1.8499    2.0978 H         1 UNK         0.0000 
     27 H27         2.7303   -2.7797    0.6747 H         1 UNK         0.0000 
     28 C28         0.5981   -2.7726    1.0104 C.ar      1 UNK         0.0000 
     29 C29        -0.4097   -2.3922    1.9049 C.ar      1 UNK         0.0000 
     30 C30        -1.7201   -2.8189    1.7201 C.ar      1 UNK         0.0000 
     31 H31        -2.5187   -2.4791    2.3730 H         1 UNK         0.0000 
     32 H32        -0.1733   -1.7151    2.7211 H         1 UNK         0.0000 
     33 C33         0.2844   -3.6711   -0.0138 C.ar      1 UNK         0.0000 
     34 H34         1.0624   -3.9948   -0.7005 H         1 UNK         0.0000 
     35 C35        -1.0250   -4.1145   -0.2061 C.ar      1 UNK         0.0000 
     36 H36        -1.2848   -4.7666   -1.0339 H         1 UNK         0.0000 
     37 C37        -2.0217   -3.6374    0.6348 C.ar      1 UNK         0.0000 
     38 O38        -3.3628   -3.8916    0.3407 O.3       1 UNK         0.0000 
     39 C39        -3.9853   -2.7376   -0.1037 C.ar      1 UNK         0.0000 
     40 C40        -5.1564   -2.3150    0.5202 C.ar      1 UNK         0.0000 
     41 C41        -5.6869   -1.0704    0.1851 C.ar      1 UNK         0.0000 
     42 H42        -6.5647   -0.6942    0.7017 H         1 UNK         0.0000 
     43 H43        -5.5983   -2.9267    1.2993 H         1 UNK         0.0000 
     44 C44        -3.4015   -1.9868   -1.1274 C.ar      1 UNK         0.0000 
     45 H45        -2.5111   -2.3511   -1.6279 H         1 UNK         0.0000 
     46 C46        -3.9224   -0.7420   -1.4363 C.ar      1 UNK         0.0000 
     47 H47        -3.4298   -0.1381   -2.1915 H         1 UNK         0.0000 
     48 C48        -5.0448   -0.2574   -0.7545 C.ar      1 UNK         0.0000 
     49 C49        -5.4838    1.1528   -0.9325 C.2       1 UNK         0.0000 
     50 O50        -6.6375    1.5069   -0.7745 O.2       1 UNK         0.0000 
     51 C51        -4.3980    2.1918   -1.2507 C.3       1 UNK         0.0000 
     52 H52        -4.0369    2.0599   -2.2749 H         1 UNK         0.0000 
     53 H53        -4.8512    3.1810   -1.1627 H         1 UNK         0.0000 
     54 N54        -3.2580    2.0677   -0.3596 N.am      1 UNK         0.0000 
     55 H55        -3.4154    2.2209    0.6281 H         1 UNK         0.0000 
     56 C56        -2.0231    1.7049   -0.7639 C.2       1 UNK         0.0000 
     57 O57        -1.7245    1.4709   -1.9316 O.2       1 UNK         0.0000 
     58 C58        -0.9645    1.6206    0.3465 C.3       1 UNK         0.0000 
     59 H59        -1.4319    1.2868    1.2798 H         1 UNK         0.0000 
     60 C60        -0.3619    3.0044    0.5632 C.ar      1 UNK         0.0000 
     61 C61         0.6811    3.4619   -0.2461 C.ar      1 UNK         0.0000 
     62 H62         1.1142    2.8028   -0.9961 H         1 UNK         0.0000 
     63 C63         1.1795    4.7532   -0.0726 C.ar      1 UNK         0.0000 
     64 H64         1.9884    5.1073   -0.7042 H         1 UNK         0.0000 
     65 C65         0.6456    5.5898    0.9082 C.ar      1 UNK         0.0000 
     66 H66         1.0384    6.5927    1.0410 H         1 UNK         0.0000 
     67 C67        -0.3869    5.1286    1.7243 C.ar      1 UNK         0.0000 
     68 H68        -0.7979    5.7675    2.4995 H         1 UNK         0.0000 
     69 C69        -0.8877    3.8390    1.5512 C.ar      1 UNK         0.0000 
     70 H70        -1.6820    3.4781    2.2006 H         1 UNK         0.0000 
@<TRIPOS>BOND
     1    1    2 1    
     2    1    3 1    
     3    1    4 1    
     4    1    5 1    
     5    5   10 1    
     6    5   14 1    
     7    5    6 1    
     8    6    7 1    
     9    6    8 1    
    10    6    9 1    
    11   10   11 1    
    12   10   12 1    
    13   10   13 1    
    14   14   15 1    
    15   15   17 am   BACKBONE|DICT|INTERRES
    16   15   16 2    
    17   17   18 1    
    18   17   19 1    
    19   19   24 1    
    20   19   20 1    
    21   19   25 1    
    22   20   23 2    
    23   20   21 am   BACKBONE|DICT|INTERRES
    24   21   58 1    
    25   21   22 1    
    26   25   26 1    
    27   25   27 1    
    28   25   28 1    
    29   28   29 ar   
    30   28   33 ar   
    31   29   32 1    
    32   29   30 ar   
    33   30   31 1    
    34   30   37 ar   
    35   33   34 1    
    36   33   35 ar   
    37   35   37 ar   
    38   35   36 1    
    39   37   38 1    
    40   38   39 1    
    41   39   40 ar   
    42   39   44 ar   
    43   40   43 1    
    44   40   41 ar   
    45   41   42 1    
    46   41   48 ar   
    47   44   45 1    
    48   44   46 ar   
    49   46   48 ar   
    50   46   47 1    
    51   48   49 1    
    52   49   50 2    
    53   49   51 1    
    54   51   53 1    
    55   51   54 1    
    56   51   52 1    
    57   54   55 1    
    58   54   56 am   BACKBONE|DICT|INTERRES
    59   56   58 1    
    60   56   57 2    
    61   58   60 1    
    62   58   59 1    
    63   60   69 ar   
    64   60   61 ar   
    65   61   63 ar   
    66   61   62 1    
    67   63   65 ar   
    68   63   64 1    
    69   65   66 1    
    70   65   67 ar   
    71   67   68 1    
    72   67   69 ar   
    73   69   70 1    
@<TRIPOS>SUBSTRUCTURE
     1 UNK         1 GROUP             0       ****    0 ROOT    
@<TRIPOS>MOLECULE
Cpd2-3500
70   73    1
SMALL
USER_CHARGES


@<TRIPOS>ATOM
      1 C1          6.7313    0.0662   -2.0644 C.3       1 UNK         0.0000 
      2 H2          7.7320   -0.0209   -2.4979 H         1 UNK         0.0000 
      3 H3          6.0457   -0.5612   -2.6349 H         1 UNK         0.0000 
      4 H4          6.4142    1.1105   -2.1413 H         1 UNK         0.0000 
      5 C5          6.7870   -0.3583   -0.6002 C.3       1 UNK         0.0000 
      6 C6          7.1291   -1.8357   -0.4340 C.3       1 UNK         0.0000 
      7 H7          7.0880   -2.1143    0.6233 H         1 UNK         0.0000 
      8 H8          6.4447   -2.4686   -0.9998 H         1 UNK         0.0000 
      9 H9          8.1477   -2.0075   -0.7942 H         1 UNK         0.0000 
     10 C10         7.7756    0.5091    0.1705 C.3       1 UNK         0.0000 
     11 H11         7.5054    1.5652    0.0845 H         1 UNK         0.0000 
     12 H12         7.7834    0.2317    1.2283 H         1 UNK         0.0000 
     13 H13         8.7810    0.3706   -0.2353 H         1 UNK         0.0000 
     14 O14         5.5152   -0.0588    0.0594 O.3       1 UNK         0.0000 
     15 C15         4.3741   -0.6405   -0.3394 C.2       1 UNK         0.0000 
     16 O16         4.2607   -1.4496   -1.2481 O.2       1 UNK         0.0000 
     17 N17         3.3283   -0.1841    0.4022 N.am      1 UNK         0.0000 
     18 H18         3.5305    0.3498    1.2387 H         1 UNK         0.0000 
     19 C19         2.0221   -0.8054    0.2949 C.3       1 UNK         0.0000 
     20 C20         1.0100    0.2200    0.8071 C.2       1 UNK         0.0000 
     21 N21         0.0394    0.6031   -0.0442 N.am      1 UNK         0.0000 
     22 H22         0.0049    0.2639   -0.9991 H         1 UNK         0.0000 
     23 O23         1.1032    0.6564    1.9534 O.2       1 UNK         0.0000 
     24 H24         1.8445   -1.0345   -0.7596 H         1 UNK         0.0000 
     25 C25         1.9389   -2.1058    1.1268 C.3       1 UNK         0.0000 
     26 H26         2.1642   -1.8517    2.1677 H         1 UNK         0.0000 
     27 H27         2.7199   -2.7777    0.7583 H         1 UNK         0.0000 
     28 C28         0.5772   -2.7412    1.0133 C.ar      1 UNK         0.0000 
     29 C29        -0.4517   -2.3556    1.8820 C.ar      1 UNK         0.0000 
     30 C30        -1.7565   -2.7877    1.6753 C.ar      1 UNK         0.0000 
     31 H31        -2.5671   -2.4525    2.3156 H         1 UNK         0.0000 
     32 H32        -0.2323   -1.6796    2.7045 H         1 UNK         0.0000 
     33 C33         0.2834   -3.6348   -0.0210 C.ar      1 UNK         0.0000 
     34 H34         1.0761   -3.9595   -0.6902 H         1 UNK         0.0000 
     35 C35        -1.0216   -4.0814   -0.2377 C.ar      1 UNK         0.0000 
     36 H36        -1.2637   -4.7367   -1.0684 H         1 UNK         0.0000 
     37 C37        -2.0345   -3.6153    0.5898 C.ar      1 UNK         0.0000 
     38 O38        -3.3678   -3.8996    0.2867 O.3       1 UNK         0.0000 
     39 C39        -4.0124   -2.7496   -0.1398 C.ar      1 UNK         0.0000 
     40 C40        -5.1377   -2.3032    0.5476 C.ar      1 UNK         0.0000 
     41 C41        -5.6673   -1.0533    0.2312 C.ar      1 UNK         0.0000 
     42 H42        -6.5051   -0.6562    0.7961 H         1 UNK         0.0000 
     43 H43        -5.5403   -2.8990    1.3599 H         1 UNK         0.0000 
     44 C44        -3.4801   -2.0223   -1.2062 C.ar      1 UNK         0.0000 
     45 H45        -2.6260   -2.4090   -1.7519 H         1 UNK         0.0000 
     46 C46        -3.9972   -0.7713   -1.4969 C.ar      1 UNK         0.0000 
     47 H47        -3.5381   -0.1818   -2.2831 H         1 UNK         0.0000 
     48 C48        -5.0668   -0.2603   -0.7518 C.ar      1 UNK         0.0000 
     49 C49        -5.4832    1.1597   -0.9079 C.2       1 UNK         0.0000 
     50 O50        -6.6218    1.5379   -0.7047 O.2       1 UNK         0.0000 
     51 C51        -4.3820    2.1738   -1.2525 C.3       1 UNK         0.0000 
     52 H52        -4.0281    2.0192   -2.2757 H         1 UNK         0.0000 
     53 H53        -4.8140    3.1733   -1.1762 H         1 UNK         0.0000 
     54 N54        -3.2412    2.0433   -0.3625 N.am      1 UNK         0.0000 
     55 H55        -3.3795    2.2729    0.6134 H         1 UNK         0.0000 
     56 C56        -2.0228    1.6173   -0.7540 C.2       1 UNK         0.0000 
     57 O57        -1.7405    1.3047   -1.9075 O.2       1 UNK         0.0000 
     58 C58        -0.9552    1.5819    0.3503 C.3       1 UNK         0.0000 
     59 H59        -1.4060    1.2647    1.2977 H         1 UNK         0.0000 
     60 C60        -0.3808    2.9836    0.5187 C.ar      1 UNK         0.0000 
     61 C61         0.4748    3.5093   -0.4527 C.ar      1 UNK         0.0000 
     62 H62         0.7573    2.9005   -1.3077 H         1 UNK         0.0000 
     63 C63         0.9678    4.8059   -0.3219 C.ar      1 UNK         0.0000 
     64 H64         1.6340    5.2080   -1.0786 H         1 UNK         0.0000 
     65 C65         0.6058    5.5855    0.7782 C.ar      1 UNK         0.0000 
     66 H66         0.9917    6.5949    0.8801 H         1 UNK         0.0000 
     67 C67        -0.2475    5.0621    1.7487 C.ar      1 UNK         0.0000 
     68 H68        -0.5252    5.6597    2.6110 H         1 UNK         0.0000 
     69 C69        -0.7387    3.7626    1.6192 C.ar      1 UNK         0.0000 
     70 H70        -1.3896    3.3506    2.3864 H         1 UNK         0.0000 
@<TRIPOS>BOND
     1    1    5 1    
     2    1    2 1    
     3    1    3 1    
     4    1    4 1    
     5    5    6 1    
     6    5   14 1    
     7    5   10 1    
     8    6    7 1    
     9    6    8 1    
    10    6    9 1    
    11   10   12 1    
    12   10   11 1    
    13   10   13 1    
    14   14   15 1    
    15   15   17 am   BACKBONE|DICT|INTERRES
    16   15   16 2    
    17   17   18 1    
    18   17   19 1    
    19   19   24 1    
    20   19   20 1    
    21   19   25 1    
    22   20   23 2    
    23   20   21 am   BACKBONE|DICT|INTERRES
    24   21   58 1    
    25   21   22 1    
    26   25   26 1    
    27   25   27 1    
    28   25   28 1    
    29   28   29 ar   
    30   28   33 ar   
    31   29   32 1    
    32   29   30 ar   
    33   30   31 1    
    34   30   37 ar   
    35   33   34 1    
    36   33   35 ar   
    37   35   37 ar   
    38   35   36 1    
    39   37   38 1    
    40   38   39 1    
    41   39   40 ar   
    42   39   44 ar   
    43   40   43 1    
    44   40   41 ar   
    45   41   42 1    
    46   41   48 ar   
    47   44   45 1    
    48   44   46 ar   
    49   46   48 ar   
    50   46   47 1    
    51   48   49 1    
    52   49   50 2    
    53   49   51 1    
    54   51   53 1    
    55   51   54 1    
    56   51   52 1    
    57   54   55 1    
    58   54   56 am   BACKBONE|DICT|INTERRES
    59   56   58 1    
    60   56   57 2    
    61   58   60 1    
    62   58   59 1    
    63   60   69 ar   
    64   60   61 ar   
    65   61   63 ar   
    66   61   62 1    
    67   63   65 ar   
    68   63   64 1    
    69   65   66 1    
    70   65   67 ar   
    71   67   68 1    
    72   67   69 ar   
    73   69   70 1    
@<TRIPOS>SUBSTRUCTURE
     1 UNK         1 GROUP             0       ****    0 ROOT    
@<TRIPOS>MOLECULE
Cpd2-4000
70   73    1
SMALL
USER_CHARGES


@<TRIPOS>ATOM
      1 C1          4.4320    3.5302   -1.2637 C.3       1 UNK         0.0000 
      2 H2          4.2269    3.7980   -0.2221 H         1 UNK         0.0000 
      3 H3          4.9428    4.3715   -1.7410 H         1 UNK         0.0000 
      4 H4          3.4880    3.3523   -1.7811 H         1 UNK         0.0000 
      5 C5          5.3349    2.3019   -1.3193 C.3       1 UNK         0.0000 
      6 C6          5.5344    1.7883   -2.7414 C.3       1 UNK         0.0000 
      7 H7          6.0667    2.5469   -3.3224 H         1 UNK         0.0000 
      8 H8          6.1395    0.8767   -2.7308 H         1 UNK         0.0000 
      9 H9          4.5793    1.5814   -3.2253 H         1 UNK         0.0000 
     10 C10         6.6775    2.5940   -0.6598 C.3       1 UNK         0.0000 
     11 H11         7.3030    1.6971   -0.6545 H         1 UNK         0.0000 
     12 H12         7.1966    3.3797   -1.2145 H         1 UNK         0.0000 
     13 H13         6.5323    2.9296    0.3708 H         1 UNK         0.0000 
     14 O14         4.7870    1.2380   -0.4753 O.3       1 UNK         0.0000 
     15 C15         3.5754    0.7206   -0.7160 C.2       1 UNK         0.0000 
     16 O16         2.8240    1.0382   -1.6270 O.2       1 UNK         0.0000 
     17 N17         3.2805   -0.2499    0.1933 N.am      1 UNK         0.0000 
     18 H18         3.8615   -0.3139    1.0192 H         1 UNK         0.0000 
     19 C19         1.9539   -0.8343    0.2158 C.3       1 UNK         0.0000 
     20 C20         0.9488    0.1807    0.7868 C.2       1 UNK         0.0000 
     21 N21         0.0036    0.6267   -0.0651 N.am      1 UNK         0.0000 
     22 H22         0.0572    0.4123   -1.0550 H         1 UNK         0.0000 
     23 O23         1.0168    0.5459    1.9587 O.2       1 UNK         0.0000 
     24 H24         1.6820   -1.0833   -0.8147 H         1 UNK         0.0000 
     25 C25         1.9553   -2.1149    1.0668 C.3       1 UNK         0.0000 
     26 H26         2.2144   -1.8502    2.0975 H         1 UNK         0.0000 
     27 H27         2.7302   -2.7796    0.6742 H         1 UNK         0.0000 
     28 C28         0.5981   -2.7726    1.0101 C.ar      1 UNK         0.0000 
     29 C29        -0.4097   -2.3920    1.9045 C.ar      1 UNK         0.0000 
     30 C30        -1.7201   -2.8186    1.7201 C.ar      1 UNK         0.0000 
     31 H31        -2.5187   -2.4788    2.3729 H         1 UNK         0.0000 
     32 H32        -0.1731   -1.7148    2.7207 H         1 UNK         0.0000 
     33 C33         0.2842   -3.6713   -0.0138 C.ar      1 UNK         0.0000 
     34 H34         1.0622   -3.9953   -0.7004 H         1 UNK         0.0000 
     35 C35        -1.0253   -4.1148   -0.2058 C.ar      1 UNK         0.0000 
     36 H36        -1.2851   -4.7671   -1.0335 H         1 UNK         0.0000 
     37 C37        -2.0219   -3.6375    0.6351 C.ar      1 UNK         0.0000 
     38 O38        -3.3629   -3.8916    0.3411 O.3       1 UNK         0.0000 
     39 C39        -3.9855   -2.7378   -0.1035 C.ar      1 UNK         0.0000 
     40 C40        -5.1570   -2.3154    0.5197 C.ar      1 UNK         0.0000 
     41 C41        -5.6875   -1.0708    0.1845 C.ar      1 UNK         0.0000 
     42 H42        -6.5655   -0.6948    0.7007 H         1 UNK         0.0000 
     43 H43        -5.5991   -2.9274    1.2984 H         1 UNK         0.0000 
     44 C44        -3.4013   -1.9867   -1.1269 C.ar      1 UNK         0.0000 
     45 H45        -2.5104   -2.3507   -1.6269 H         1 UNK         0.0000 
     46 C46        -3.9220   -0.7419   -1.4358 C.ar      1 UNK         0.0000 
     47 H47        -3.4292   -0.1380   -2.1909 H         1 UNK         0.0000 
     48 C48        -5.0450   -0.2575   -0.7546 C.ar      1 UNK         0.0000 
     49 C49        -5.4839    1.1526   -0.9327 C.2       1 UNK         0.0000 
     50 O50        -6.6375    1.5068   -0.7749 O.2       1 UNK         0.0000 
     51 C51        -4.3978    2.1915   -1.2504 C.3       1 UNK         0.0000 
     52 H52        -4.0367    2.0598   -2.2745 H         1 UNK         0.0000 
     53 H53        -4.8509    3.1809   -1.1624 H         1 UNK         0.0000 
     54 N54        -3.2579    2.0672   -0.3592 N.am      1 UNK         0.0000 
     55 H55        -3.4152    2.2209    0.6284 H         1 UNK         0.0000 
     56 C56        -2.0229    1.7052   -0.7636 C.2       1 UNK         0.0000 
     57 O57        -1.7243    1.4713   -1.9315 O.2       1 UNK         0.0000 
     58 C58        -0.9641    1.6212    0.3465 C.3       1 UNK         0.0000 
     59 H59        -1.4312    1.2877    1.2800 H         1 UNK         0.0000 
     60 C60        -0.3613    3.0052    0.5626 C.ar      1 UNK         0.0000 
     61 C61         0.6817    3.4623   -0.2470 C.ar      1 UNK         0.0000 
     62 H62         1.1147    2.8029   -0.9968 H         1 UNK         0.0000 
     63 C63         1.1799    4.7537   -0.0741 C.ar      1 UNK         0.0000 
     64 H64         1.9888    5.1075   -0.7059 H         1 UNK         0.0000 
     65 C65         0.6461    5.5908    0.9063 C.ar      1 UNK         0.0000 
     66 H66         1.0391    6.5938    1.0386 H         1 UNK         0.0000 
     67 C67        -0.3864    5.1299    1.7227 C.ar      1 UNK         0.0000 
     68 H68        -0.7974    5.7692    2.4975 H         1 UNK         0.0000 
     69 C69        -0.8873    3.8402    1.5502 C.ar      1 UNK         0.0000 
     70 H70        -1.6814    3.4798    2.1996 H         1 UNK         0.0000 
@<TRIPOS>BOND
     1    1    2 1    
     2    1    3 1    
     3    1    4 1    
     4    1    5 1    
     5    5   10 1    
     6    5   14 1    
     7    5    6 1    
     8    6    7 1    
     9    6    8 1    
    10    6    9 1    
    11   10   13 1    
    12   10   11 1    
    13   10   12 1    
    14   14   15 1    
    15   15   17 am   BACKBONE|DICT|INTERRES
    16   15   16 2    
    17   17   18 1    
    18   17   19 1    
    19   19   24 1    
    20   19   20 1    
    21   19   25 1    
    22   20   23 2    
    23   20   21 am   BACKBONE|DICT|INTERRES
    24   21   58 1    
    25   21   22 1    
    26   25   26 1    
    27   25   27 1    
    28   25   28 1    
    29   28   29 ar   
    30   28   33 ar   
    31   29   32 1    
    32   29   30 ar   
    33   30   31 1    
    34   30   37 ar   
    35   33   34 1    
    36   33   35 ar   
    37   35   37 ar   
    38   35   36 1    
    39   37   38 1    
    40   38   39 1    
    41   39   40 ar   
    42   39   44 ar   
    43   40   43 1    
    44   40   41 ar   
    45   41   42 1    
    46   41   48 ar   
    47   44   45 1    
    48   44   46 ar   
    49   46   48 ar   
    50   46   47 1    
    51   48   49 1    
    52   49   50 2    
    53   49   51 1    
    54   51   53 1    
    55   51   54 1    
    56   51   52 1    
    57   54   55 1    
    58   54   56 am   BACKBONE|DICT|INTERRES
    59   56   58 1    
    60   56   57 2    
    61   58   60 1    
    62   58   59 1    
    63   60   69 ar   
    64   60   61 ar   
    65   61   63 ar   
    66   61   62 1    
    67   63   65 ar   
    68   63   64 1    
    69   65   66 1    
    70   65   67 ar   
    71   67   68 1    
    72   67   69 ar   
    73   69   70 1    
@<TRIPOS>SUBSTRUCTURE
     1 UNK         1 GROUP             0       ****    0 ROOT    
@<TRIPOS>MOLECULE
Cpd2-4500
70   73    1
SMALL
USER_CHARGES


@<TRIPOS>ATOM
      1 C1          4.4323    3.5316   -1.2604 C.3       1 UNK         0.0000 
      2 H2          4.9431    4.3729   -1.7380 H         1 UNK         0.0000 
      3 H3          3.4883    3.3535   -1.7779 H         1 UNK         0.0000 
      4 H4          4.2271    3.7994   -0.2191 H         1 UNK         0.0000 
      5 C5          5.3353    2.3033   -1.3160 C.3       1 UNK         0.0000 
      6 C6          5.5357    1.7901   -2.7382 C.3       1 UNK         0.0000 
      7 H7          4.5808    1.5834   -3.2227 H         1 UNK         0.0000 
      8 H8          6.0683    2.5488   -3.3187 H         1 UNK         0.0000 
      9 H9          6.1406    0.8786   -2.7275 H         1 UNK         0.0000 
     10 C10         6.6776    2.5954   -0.6557 C.3       1 UNK         0.0000 
     11 H11         7.1967    3.3817   -1.2097 H         1 UNK         0.0000 
     12 H12         6.5318    2.9302    0.3750 H         1 UNK         0.0000 
     13 H13         7.3034    1.6987   -0.6508 H         1 UNK         0.0000 
     14 O14         4.7871    1.2392   -0.4726 O.3       1 UNK         0.0000 
     15 C15         3.5759    0.7214   -0.7143 C.2       1 UNK         0.0000 
     16 O16         2.8248    1.0392   -1.6255 O.2       1 UNK         0.0000 
     17 N17         3.2810   -0.2501    0.1941 N.am      1 UNK         0.0000 
     18 H18         3.8613   -0.3138    1.0204 H         1 UNK         0.0000 
     19 C19         1.9543   -0.8341    0.2161 C.3       1 UNK         0.0000 
     20 C20         0.9491    0.1808    0.7869 C.2       1 UNK         0.0000 
     21 N21         0.0038    0.6265   -0.0649 N.am      1 UNK         0.0000 
     22 H22         0.0570    0.4119   -1.0547 H         1 UNK         0.0000 
     23 O23         1.0169    0.5460    1.9588 O.2       1 UNK         0.0000 
     24 H24         1.6826   -1.0830   -0.8145 H         1 UNK         0.0000 
     25 C25         1.9553   -2.1148    1.0669 C.3       1 UNK         0.0000 
     26 H26         2.2143   -1.8502    2.0976 H         1 UNK         0.0000 
     27 H27         2.7301   -2.7796    0.6744 H         1 UNK         0.0000 
     28 C28         0.5980   -2.7724    1.0101 C.ar      1 UNK         0.0000 
     29 C29        -0.4098   -2.3915    1.9043 C.ar      1 UNK         0.0000 
     30 C30        -1.7203   -2.8183    1.7197 C.ar      1 UNK         0.0000 
     31 H31        -2.5189   -2.4782    2.3725 H         1 UNK         0.0000 
     32 H32        -0.1734   -1.7142    2.7203 H         1 UNK         0.0000 
     33 C33         0.2843   -3.6713   -0.0138 C.ar      1 UNK         0.0000 
     34 H34         1.0623   -3.9954   -0.7002 H         1 UNK         0.0000 
     35 C35        -1.0252   -4.1147   -0.2059 C.ar      1 UNK         0.0000 
     36 H36        -1.2849   -4.7672   -1.0335 H         1 UNK         0.0000 
     37 C37        -2.0219   -3.6373    0.6348 C.ar      1 UNK         0.0000 
     38 O38        -3.3629   -3.8916    0.3408 O.3       1 UNK         0.0000 
     39 C39        -3.9856   -2.7377   -0.1037 C.ar      1 UNK         0.0000 
     40 C40        -5.1567   -2.3152    0.5200 C.ar      1 UNK         0.0000 
     41 C41        -5.6873   -1.0706    0.1848 C.ar      1 UNK         0.0000 
     42 H42        -6.5651   -0.6944    0.7013 H         1 UNK         0.0000 
     43 H43        -5.5988   -2.9270    1.2989 H         1 UNK         0.0000 
     44 C44        -3.4017   -1.9869   -1.1273 C.ar      1 UNK         0.0000 
     45 H45        -2.5109   -2.3510   -1.6276 H         1 UNK         0.0000 
     46 C46        -3.9224   -0.7420   -1.4362 C.ar      1 UNK         0.0000 
     47 H47        -3.4297   -0.1381   -2.1914 H         1 UNK         0.0000 
     48 C48        -5.0451   -0.2575   -0.7546 C.ar      1 UNK         0.0000 
     49 C49        -5.4839    1.1527   -0.9326 C.2       1 UNK         0.0000 
     50 O50        -6.6375    1.5070   -0.7746 O.2       1 UNK         0.0000 
     51 C51        -4.3977    2.1915   -1.2504 C.3       1 UNK         0.0000 
     52 H52        -4.0367    2.0595   -2.2746 H         1 UNK         0.0000 
     53 H53        -4.8507    3.1809   -1.1626 H         1 UNK         0.0000 
     54 N54        -3.2580    2.0671   -0.3593 N.am      1 UNK         0.0000 
     55 H55        -3.4152    2.2208    0.6284 H         1 UNK         0.0000 
     56 C56        -2.0230    1.7047   -0.7635 C.2       1 UNK         0.0000 
     57 O57        -1.7244    1.4704   -1.9314 O.2       1 UNK         0.0000 
     58 C58        -0.9643    1.6207    0.3468 C.3       1 UNK         0.0000 
     59 H59        -1.4316    1.2868    1.2801 H         1 UNK         0.0000 
     60 C60        -0.3619    3.0048    0.5632 C.ar      1 UNK         0.0000 
     61 C61         0.6807    3.4624   -0.2463 C.ar      1 UNK         0.0000 
     62 H62         1.1139    2.8033   -0.9963 H         1 UNK         0.0000 
     63 C63         1.1786    4.7539   -0.0731 C.ar      1 UNK         0.0000 
     64 H64         1.9873    5.1081   -0.7050 H         1 UNK         0.0000 
     65 C65         0.6446    5.5906    0.9075 C.ar      1 UNK         0.0000 
     66 H66         1.0371    6.5937    1.0400 H         1 UNK         0.0000 
     67 C67        -0.3877    5.1291    1.7238 C.ar      1 UNK         0.0000 
     68 H68        -0.7989    5.7681    2.4988 H         1 UNK         0.0000 
     69 C69        -0.8881    3.8393    1.5511 C.ar      1 UNK         0.0000 
     70 H70        -1.6820    3.4784    2.2006 H         1 UNK         0.0000 
@<TRIPOS>BOND
     1    1    4 1    
     2    1    2 1    
     3    1    3 1    
     4    1    5 1    
     5    5   10 1    
     6    5   14 1    
     7    5    6 1    
     8    6    7 1    
     9    6    8 1    
    10    6    9 1    
    11   10   12 1    
    12   10   11 1    
    13   10   13 1    
    14   14   15 1    
    15   15   17 am   BACKBONE|DICT|INTERRES
    16   15   16 2    
    17   17   18 1    
    18   17   19 1    
    19   19   24 1    
    20   19   20 1    
    21   19   25 1    
    22   20   23 2    
    23   20   21 am   BACKBONE|DICT|INTERRES
    24   21   58 1    
    25   21   22 1    
    26   25   26 1    
    27   25   27 1    
    28   25   28 1    
    29   28   29 ar   
    30   28   33 ar   
    31   29   32 1    
    32   29   30 ar   
    33   30   31 1    
    34   30   37 ar   
    35   33   34 1    
    36   33   35 ar   
    37   35   37 ar   
    38   35   36 1    
    39   37   38 1    
    40   38   39 1    
    41   39   40 ar   
    42   39   44 ar   
    43   40   43 1    
    44   40   41 ar   
    45   41   42 1    
    46   41   48 ar   
    47   44   45 1    
    48   44   46 ar   
    49   46   48 ar   
    50   46   47 1    
    51   48   49 1    
    52   49   50 2    
    53   49   51 1    
    54   51   53 1    
    55   51   54 1    
    56   51   52 1    
    57   54   55 1    
    58   54   56 am   BACKBONE|DICT|INTERRES
    59   56   58 1    
    60   56   57 2    
    61   58   60 1    
    62   58   59 1    
    63   60   69 ar   
    64   60   61 ar   
    65   61   63 ar   
    66   61   62 1    
    67   63   65 ar   
    68   63   64 1    
    69   65   66 1    
    70   65   67 ar   
    71   67   68 1    
    72   67   69 ar   
    73   69   70 1    
@<TRIPOS>SUBSTRUCTURE
     1 UNK         1 GROUP             0       ****    0 ROOT    
@<TRIPOS>MOLECULE
Cpd2-5000
70   73    1
SMALL
USER_CHARGES


@<TRIPOS>ATOM
      1 C1          6.7306    0.0669   -2.0654 C.3       1 UNK         0.0000 
      2 H2          7.7311   -0.0198   -2.4991 H         1 UNK         0.0000 
      3 H3          6.0450   -0.5606   -2.6358 H         1 UNK         0.0000 
      4 H4          6.4130    1.1111   -2.1420 H         1 UNK         0.0000 
      5 C5          6.7867   -0.3578   -0.6012 C.3       1 UNK         0.0000 
      6 C6          7.1293   -1.8352   -0.4353 C.3       1 UNK         0.0000 
      7 H7          6.4448   -2.4681   -1.0009 H         1 UNK         0.0000 
      8 H8          8.1477   -2.0067   -0.7959 H         1 UNK         0.0000 
      9 H9          7.0884   -2.1139    0.6221 H         1 UNK         0.0000 
     10 C10         7.7753    0.5097    0.1693 C.3       1 UNK         0.0000 
     11 H11         8.7806    0.3714   -0.2367 H         1 UNK         0.0000 
     12 H12         7.5049    1.5658    0.0834 H         1 UNK         0.0000 
     13 H13         7.7834    0.2322    1.2270 H         1 UNK         0.0000 
     14 O14         5.5150   -0.0588    0.0588 O.3       1 UNK         0.0000 
     15 C15         4.3739   -0.6405   -0.3398 C.2       1 UNK         0.0000 
     16 O16         4.2606   -1.4498   -1.2485 O.2       1 UNK         0.0000 
     17 N17         3.3281   -0.1842    0.4019 N.am      1 UNK         0.0000 
     18 H18         3.5304    0.3499    1.2381 H         1 UNK         0.0000 
     19 C19         2.0220   -0.8056    0.2947 C.3       1 UNK         0.0000 
     20 C20         1.0100    0.2200    0.8069 C.2       1 UNK         0.0000 
     21 N21         0.0392    0.6030   -0.0443 N.am      1 UNK         0.0000 
     22 H22         0.0050    0.2640   -0.9994 H         1 UNK         0.0000 
     23 O23         1.1032    0.6563    1.9532 O.2       1 UNK         0.0000 
     24 H24         1.8442   -1.0347   -0.7597 H         1 UNK         0.0000 
     25 C25         1.9390   -2.1058    1.1267 C.3       1 UNK         0.0000 
     26 H26         2.1643   -1.8516    2.1675 H         1 UNK         0.0000 
     27 H27         2.7199   -2.7778    0.7582 H         1 UNK         0.0000 
     28 C28         0.5772   -2.7412    1.0133 C.ar      1 UNK         0.0000 
     29 C29        -0.4516   -2.3556    1.8819 C.ar      1 UNK         0.0000 
     30 C30        -1.7565   -2.7876    1.6752 C.ar      1 UNK         0.0000 
     31 H31        -2.5670   -2.4522    2.3156 H         1 UNK         0.0000 
     32 H32        -0.2323   -1.6794    2.7044 H         1 UNK         0.0000 
     33 C33         0.2834   -3.6351   -0.0207 C.ar      1 UNK         0.0000 
     34 H34         1.0762   -3.9599   -0.6898 H         1 UNK         0.0000 
     35 C35        -1.0216   -4.0818   -0.2374 C.ar      1 UNK         0.0000 
     36 H36        -1.2637   -4.7372   -1.0679 H         1 UNK         0.0000 
     37 C37        -2.0344   -3.6154    0.5899 C.ar      1 UNK         0.0000 
     38 O38        -3.3678   -3.8996    0.2867 O.3       1 UNK         0.0000 
     39 C39        -4.0124   -2.7497   -0.1397 C.ar      1 UNK         0.0000 
     40 C40        -5.1379   -2.3035    0.5473 C.ar      1 UNK         0.0000 
     41 C41        -5.6675   -1.0535    0.2309 C.ar      1 UNK         0.0000 
     42 H42        -6.5056   -0.6565    0.7956 H         1 UNK         0.0000 
     43 H43        -5.5407   -2.8994    1.3593 H         1 UNK         0.0000 
     44 C44        -3.4798   -2.0221   -1.2059 C.ar      1 UNK         0.0000 
     45 H45        -2.6255   -2.4087   -1.7514 H         1 UNK         0.0000 
     46 C46        -3.9968   -0.7711   -1.4966 C.ar      1 UNK         0.0000 
     47 H47        -3.5375   -0.1815   -2.2826 H         1 UNK         0.0000 
     48 C48        -5.0667   -0.2603   -0.7518 C.ar      1 UNK         0.0000 
     49 C49        -5.4833    1.1597   -0.9080 C.2       1 UNK         0.0000 
     50 O50        -6.6219    1.5378   -0.7049 O.2       1 UNK         0.0000 
     51 C51        -4.3820    2.1739   -1.2523 C.3       1 UNK         0.0000 
     52 H52        -4.0282    2.0195   -2.2755 H         1 UNK         0.0000 
     53 H53        -4.8141    3.1734   -1.1757 H         1 UNK         0.0000 
     54 N54        -3.2412    2.0434   -0.3624 N.am      1 UNK         0.0000 
     55 H55        -3.3795    2.2724    0.6136 H         1 UNK         0.0000 
     56 C56        -2.0227    1.6176   -0.7540 C.2       1 UNK         0.0000 
     57 O57        -1.7405    1.3054   -1.9075 O.2       1 UNK         0.0000 
     58 C58        -0.9551    1.5822    0.3503 C.3       1 UNK         0.0000 
     59 H59        -1.4058    1.2653    1.2978 H         1 UNK         0.0000 
     60 C60        -0.3802    2.9838    0.5181 C.ar      1 UNK         0.0000 
     61 C61        -0.7377    3.7632    1.6185 C.ar      1 UNK         0.0000 
     62 H62        -1.3886    3.3515    2.3860 H         1 UNK         0.0000 
     63 C63        -0.2461    5.0624    1.7476 C.ar      1 UNK         0.0000 
     64 H64        -0.5234    5.6604    2.6098 H         1 UNK         0.0000 
     65 C65         0.6072    5.5855    0.7769 C.ar      1 UNK         0.0000 
     66 H66         0.9934    6.5947    0.8785 H         1 UNK         0.0000 
     67 C67         0.9688    4.8055   -0.3230 C.ar      1 UNK         0.0000 
     68 H68         1.6350    5.2073   -1.0800 H         1 UNK         0.0000 
     69 C69         0.4754    3.5089   -0.4535 C.ar      1 UNK         0.0000 
     70 H70         0.7576    2.9000   -1.3085 H         1 UNK         0.0000 
@<TRIPOS>BOND
     1    1    5 1    
     2    1    2 1    
     3    1    3 1    
     4    1    4 1    
     5    5    6 1    
     6    5   14 1    
     7    5   10 1    
     8    6    9 1    
     9    6    7 1    
    10    6    8 1    
    11   10   13 1    
    12   10   11 1    
    13   10   12 1    
    14   14   15 1    
    15   15   17 am   BACKBONE|DICT|INTERRES
    16   15   16 2    
    17   17   18 1    
    18   17   19 1    
    19   19   24 1    
    20   19   20 1    
    21   19   25 1    
    22   20   23 2    
    23   20   21 am   BACKBONE|DICT|INTERRES
    24   21   58 1    
    25   21   22 1    
    26   25   26 1    
    27   25   27 1    
    28   25   28 1    
    29   28   29 ar   
    30   28   33 ar   
    31   29   32 1    
    32   29   30 ar   
    33   30   31 1    
    34   30   37 ar   
    35   33   34 1    
    36   33   35 ar   
    37   35   37 ar   
    38   35   36 1    
    39   37   38 1    
    40   38   39 1    
    41   39   40 ar   
    42   39   44 ar   
    43   40   43 1    
    44   40   41 ar   
    45   41   42 1    
    46   41   48 ar   
    47   44   45 1    
    48   44   46 ar   
    49   46   48 ar   
    50   46   47 1    
    51   48   49 1    
    52   49   50 2    
    53   49   51 1    
    54   51   53 1    
    55   51   54 1    
    56   51   52 1    
    57   54   55 1    
    58   54   56 am   BACKBONE|DICT|INTERRES
    59   56   58 1    
    60   56   57 2    
    61   58   60 1    
    62   58   59 1    
    63   60   61 ar   
    64   60   69 ar   
    65   61   63 ar   
    66   61   62 1    
    67   63   64 1    
    68   63   65 ar   
    69   65   66 1    
    70   65   67 ar   
    71   67   68 1    
    72   67   69 ar   
    73   69   70 1    
@<TRIPOS>SUBSTRUCTURE
     1 UNK         1 GROUP             0       ****    0 ROOT    
