@<TRIPOS>MOLECULE
Cpd2-500
80   82    1
SMALL
USER_CHARGES


@<TRIPOS>ATOM
      1 C1         20.0893   29.8612   27.0884 C.3       1 UNK         0.0000 
      2 H2         19.4304   30.3661   26.3717 H         1 UNK         0.0000 
      3 H3         20.7441   29.1577   26.5617 H         1 UNK         0.0000 
      4 H4         19.4115   29.3888   27.8097 H         1 UNK         0.0000 
      5 C5         20.7991   30.9316   27.8128 C.3       1 UNK         0.0000 
      6 C6         21.1610   32.0815   26.9309 C.3       1 UNK         0.0000 
      7 H7         21.8390   31.8755   26.0944 H         1 UNK         0.0000 
      8 H8         20.3091   32.5387   26.4128 H         1 UNK         0.0000 
      9 H9         21.7754   32.8041   27.4814 H         1 UNK         0.0000 
     10 C10        19.8700   31.5933   28.9195 C.3       1 UNK         0.0000 
     11 H11        20.3800   32.4882   29.2964 H         1 UNK         0.0000 
     12 H12        18.9737   31.9423   28.3914 H         1 UNK         0.0000 
     13 H13        19.6090   30.9302   29.7538 H         1 UNK         0.0000 
     14 O14        22.0933   30.5455   28.2489 O.3       1 UNK         0.0000 
     15 C15        22.1585   29.5628   29.1743 C.2       1 UNK         0.0000 
     16 O16        21.1874   28.9435   29.5509 O.2       1 UNK         0.0000 
     17 N17        23.3982   29.5421   29.8306 N.am      1 UNK         0.0000 
     18 H18        24.1668   30.0228   29.3776 H         1 UNK         0.0000 
     19 C19        23.8894   28.4959   30.7613 C.3       1 UNK         0.0000 
     20 C20        24.7846   29.0258   31.8870 C.2       1 UNK         0.0000 
     21 N21        25.2611   30.3492   31.7756 N.am      1 UNK         0.0000 
     22 H22        25.2974   30.8269   30.8823 H         1 UNK         0.0000 
     23 O23        24.9331   28.3067   32.8589 O.2       1 UNK         0.0000 
     24 H24        23.0056   28.2523   31.3640 H         1 UNK         0.0000 
     25 C25        24.4658   27.3029   30.0261 C.3       1 UNK         0.0000 
     26 H26        23.8129   26.9770   29.2079 H         1 UNK         0.0000 
     27 H27        24.6616   26.5144   30.7630 H         1 UNK         0.0000 
     28 C28        25.9057   27.5749   29.5435 C.ar      1 UNK         0.0000 
     29 C29        26.0272   28.0964   28.2733 C.ar      1 UNK         0.0000 
     30 C30        27.3113   28.3860   27.8240 C.ar      1 UNK         0.0000 
     31 H31        27.3755   28.8189   26.8298 H         1 UNK         0.0000 
     32 H32        25.1632   28.2545   27.6343 H         1 UNK         0.0000 
     33 C33        26.9803   27.2798   30.3687 C.ar      1 UNK         0.0000 
     34 H34        26.9277   26.8766   31.3755 H         1 UNK         0.0000 
     35 C35        28.2775   27.5842   29.9063 C.ar      1 UNK         0.0000 
     36 H36        29.1705   27.4305   30.5050 H         1 UNK         0.0000 
     37 C37        28.4188   28.1824   28.6232 C.ar      1 UNK         0.0000 
     38 O38        29.5194   28.8637   28.2188 O.3       1 UNK         0.0000 
     39 C39        29.5983   30.1368   28.5827 C.ar      1 UNK         0.0000 
     40 C40        29.7153   30.3972   29.9623 C.ar      1 UNK         0.0000 
     41 C41        29.2885   31.6719   30.4497 C.ar      1 UNK         0.0000 
     42 H42        29.3760   31.8816   31.5118 H         1 UNK         0.0000 
     43 H43        29.9306   29.5897   30.6546 H         1 UNK         0.0000 
     44 C44        29.2705   31.1896   27.6702 C.ar      1 UNK         0.0000 
     45 H45        28.9750   30.9000   26.6666 H         1 UNK         0.0000 
     46 C46        28.9236   32.4698   28.1332 C.ar      1 UNK         0.0000 
     47 H47        28.5225   33.1361   27.3748 H         1 UNK         0.0000 
     48 C48        28.8456   32.6834   29.5752 C.ar      1 UNK         0.0000 
     49 C49        28.3044   34.0037   30.1290 C.2       1 UNK         0.0000 
     50 O50        28.2110   35.0223   29.5022 O.2       1 UNK         0.0000 
     51 C51        27.6385   33.9111   31.4678 C.3       1 UNK         0.0000 
     52 H52        28.3950   33.6939   32.2322 H         1 UNK         0.0000 
     53 H53        27.2623   34.9359   31.5774 H         1 UNK         0.0000 
     54 N54        26.5784   32.9465   31.5726 N.am      1 UNK         0.0000 
     55 H55        26.3749   32.2957   30.8234 H         1 UNK         0.0000 
     56 C56        26.0876   32.4798   32.7630 C.2       1 UNK         0.0000 
     57 O57        26.0426   33.2131   33.7213 O.2       1 UNK         0.0000 
     58 C58        25.8045   31.0169   32.9901 C.3       1 UNK         0.0000 
     59 H59        25.0008   31.0583   33.7363 H         1 UNK         0.0000 
     60 C60        27.0829   30.3967   33.5557 C.ar      1 UNK         0.0000 
     61 C61        27.4685   30.5702   34.9106 C.ar      1 UNK         0.0000 
     62 H62        26.8829   31.3231   35.4299 H         1 UNK         0.0000 
     63 C63        28.5245   29.8952   35.4496 C.ar      1 UNK         0.0000 
     64 H64        28.6805   30.0284   36.5162 H         1 UNK         0.0000 
     65 C65        29.3126   29.1124   34.6650 C.ar      1 UNK         0.0000 
     66 H66        30.2585   28.7985   35.0946 H         1 UNK         0.0000 
     67 C67        28.9728   28.8248   33.3314 C.ar      1 UNK         0.0000 
     68 H68        29.4898   28.1172   32.6899 H         1 UNK         0.0000 
     69 C69        27.8650   29.4658   32.7708 C.ar      1 UNK         0.0000 
     70 H70        27.5964   29.3795   31.7215 H         1 UNK         0.0000 
     71 C71        25.6222   32.0341   26.5399 C.3       1 UNK         0.0000 
     72 H72        25.0509   32.6284   25.8171 H         1 UNK         0.0000 
     73 H73        25.8007   31.0029   26.2103 H         1 UNK         0.0000 
     74 H74        26.6089   32.5122   26.5843 H         1 UNK         0.0000 
     75 S75        24.8170   32.0338   28.1232 S.3       1 UNK         0.0000 
     76 C76        24.6845   33.8542   28.3209 C.3       1 UNK         0.0000 
     77 H77        24.4913   34.1245   29.3661 H         1 UNK         0.0000 
     78 H78        23.8836   34.1896   27.6515 H         1 UNK         0.0000 
     79 H79        25.5839   34.4222   28.0537 H         1 UNK         0.0000 
     80 O80        25.8128   31.6220   29.2087 O.2       1 UNK         0.0000 
@<TRIPOS>BOND
     1    1    5 1    
     2    1    4 1    
     3    1    2 1    
     4    1    3 1    
     5    5   14 1    
     6    5   10 1    
     7    5    6 1    
     8    6    9 1    
     9    6    7 1    
    10    6    8 1    
    11   10   11 1    
    12   10   13 1    
    13   10   12 1    
    14   14   15 1    
    15   15   16 2    
    16   15   17 am   BACKBONE|DICT|INTERRES
    17   17   19 1    
    18   17   18 1    
    19   19   24 1    
    20   19   20 1    
    21   19   25 1    
    22   20   23 2    
    23   20   21 am   BACKBONE|DICT|INTERRES
    24   21   58 1    
    25   21   22 1    
    26   25   27 1    
    27   25   26 1    
    28   25   28 1    
    29   28   33 ar   
    30   28   29 ar   
    31   29   30 ar   
    32   29   32 1    
    33   30   37 ar   
    34   30   31 1    
    35   33   34 1    
    36   33   35 ar   
    37   35   36 1    
    38   35   37 ar   
    39   37   38 1    
    40   38   39 1    
    41   39   40 ar   
    42   39   44 ar   
    43   40   41 ar   
    44   40   43 1    
    45   41   42 1    
    46   41   48 ar   
    47   44   46 ar   
    48   44   45 1    
    49   46   48 ar   
    50   46   47 1    
    51   48   49 1    
    52   49   51 1    
    53   49   50 2    
    54   51   53 1    
    55   51   54 1    
    56   51   52 1    
    57   54   56 am   BACKBONE|DICT|INTERRES
    58   54   55 1    
    59   56   58 1    
    60   56   57 2    
    61   58   60 1    
    62   58   59 1    
    63   60   61 ar   
    64   60   69 ar   
    65   61   62 1    
    66   61   63 ar   
    67   63   64 1    
    68   63   65 ar   
    69   65   66 1    
    70   65   67 ar   
    71   67   68 1    
    72   67   69 ar   
    73   69   70 1    
    74   71   74 1    
    75   71   75 1    
    76   71   72 1    
    77   71   73 1    
    78   75   76 1    
    79   75   80 2    
    80   76   77 1    
    81   76   78 1    
    82   76   79 1    
@<TRIPOS>SUBSTRUCTURE
     1 UNK         1 GROUP             0       ****    0 ROOT    
@<TRIPOS>MOLECULE
Cpd2-1000
80   82    1
SMALL
USER_CHARGES


@<TRIPOS>ATOM
      1 C1         20.3497   29.7338   26.9126 C.3       1 UNK         0.0000 
      2 H2         20.1208   28.8492   27.5192 H         1 UNK         0.0000 
      3 H3         19.4691   29.9932   26.3122 H         1 UNK         0.0000 
      4 H4         21.2356   29.6656   26.2708 H         1 UNK         0.0000 
      5 C5         20.6455   30.7767   27.9615 C.3       1 UNK         0.0000 
      6 C6         20.9476   32.0825   27.2135 C.3       1 UNK         0.0000 
      7 H7         20.0258   32.4612   26.7556 H         1 UNK         0.0000 
      8 H8         21.3463   32.8251   27.9157 H         1 UNK         0.0000 
      9 H9         21.7534   31.8586   26.5036 H         1 UNK         0.0000 
     10 C10        19.5434   31.0102   29.0275 C.3       1 UNK         0.0000 
     11 H11        19.8535   31.7492   29.7758 H         1 UNK         0.0000 
     12 H12        18.5879   31.2690   28.5535 H         1 UNK         0.0000 
     13 H13        19.2044   30.1411   29.6038 H         1 UNK         0.0000 
     14 O14        21.8784   30.5068   28.6536 O.3       1 UNK         0.0000 
     15 C15        21.9904   29.3139   29.3626 C.2       1 UNK         0.0000 
     16 O16        21.2107   28.5137   29.7038 O.2       1 UNK         0.0000 
     17 N17        23.2385   29.3290   29.8312 N.am      1 UNK         0.0000 
     18 H18        23.7631   30.1363   29.5172 H         1 UNK         0.0000 
     19 C19        23.7562   28.3863   30.8302 C.3       1 UNK         0.0000 
     20 C20        24.5350   29.0694   31.9015 C.2       1 UNK         0.0000 
     21 N21        24.8039   30.5006   31.9690 N.am      1 UNK         0.0000 
     22 H22        24.3887   31.1421   31.3030 H         1 UNK         0.0000 
     23 O23        24.9537   28.3829   32.7829 O.2       1 UNK         0.0000 
     24 H24        22.9361   27.9898   31.4406 H         1 UNK         0.0000 
     25 C25        24.5038   27.1798   30.2280 C.3       1 UNK         0.0000 
     26 H26        23.8719   26.6992   29.4714 H         1 UNK         0.0000 
     27 H27        24.6424   26.4226   31.0100 H         1 UNK         0.0000 
     28 C28        25.9063   27.4905   29.6380 C.ar      1 UNK         0.0000 
     29 C29        26.0617   27.9343   28.2872 C.ar      1 UNK         0.0000 
     30 C30        27.2639   28.2224   27.6986 C.ar      1 UNK         0.0000 
     31 H31        27.3436   28.5516   26.6668 H         1 UNK         0.0000 
     32 H32        25.1624   27.9714   27.6795 H         1 UNK         0.0000 
     33 C33        27.0961   27.2816   30.3312 C.ar      1 UNK         0.0000 
     34 H34        27.0974   26.8626   31.3330 H         1 UNK         0.0000 
     35 C35        28.3599   27.6701   29.7903 C.ar      1 UNK         0.0000 
     36 H36        29.3010   27.4906   30.3034 H         1 UNK         0.0000 
     37 C37        28.4961   28.1139   28.4613 C.ar      1 UNK         0.0000 
     38 O38        29.5794   28.8720   28.0840 O.3       1 UNK         0.0000 
     39 C39        29.6720   30.2118   28.5587 C.ar      1 UNK         0.0000 
     40 C40        29.9342   30.5374   29.9113 C.ar      1 UNK         0.0000 
     41 C41        29.7094   31.8347   30.3766 C.ar      1 UNK         0.0000 
     42 H42        29.9338   32.0608   31.4146 H         1 UNK         0.0000 
     43 H43        30.2886   29.7051   30.5120 H         1 UNK         0.0000 
     44 C44        29.1850   31.2439   27.6627 C.ar      1 UNK         0.0000 
     45 H45        29.0233   30.9667   26.6252 H         1 UNK         0.0000 
     46 C46        28.7502   32.4543   28.2207 C.ar      1 UNK         0.0000 
     47 H47        28.2189   33.1896   27.6246 H         1 UNK         0.0000 
     48 C48        29.0217   32.7632   29.5528 C.ar      1 UNK         0.0000 
     49 C49        28.3230   33.9279   30.1647 C.2       1 UNK         0.0000 
     50 O50        28.1608   34.9413   29.5400 O.2       1 UNK         0.0000 
     51 C51        27.7143   33.7156   31.5061 C.3       1 UNK         0.0000 
     52 H52        28.5279   33.4254   32.1818 H         1 UNK         0.0000 
     53 H53        27.2284   34.6851   31.6705 H         1 UNK         0.0000 
     54 N54        26.6225   32.7981   31.5545 N.am      1 UNK         0.0000 
     55 H55        26.3703   32.0865   30.8789 H         1 UNK         0.0000 
     56 C56        26.0616   32.5451   32.7815 C.2       1 UNK         0.0000 
     57 O57        26.0571   33.3827   33.6903 O.2       1 UNK         0.0000 
     58 C58        25.5550   31.1300   33.0639 C.3       1 UNK         0.0000 
     59 H59        24.9240   31.1645   33.9607 H         1 UNK         0.0000 
     60 C60        26.8793   30.4232   33.5509 C.ar      1 UNK         0.0000 
     61 C61        27.4404   30.7493   34.8100 C.ar      1 UNK         0.0000 
     62 H62        26.8260   31.3435   35.4795 H         1 UNK         0.0000 
     63 C63        28.7847   30.4977   35.1455 C.ar      1 UNK         0.0000 
     64 H64        29.2118   30.8048   36.0964 H         1 UNK         0.0000 
     65 C65        29.5332   29.7414   34.2173 C.ar      1 UNK         0.0000 
     66 H66        30.5655   29.4551   34.3956 H         1 UNK         0.0000 
     67 C67        28.9775   29.2657   33.0072 C.ar      1 UNK         0.0000 
     68 H68        29.5900   28.6707   32.3366 H         1 UNK         0.0000 
     69 C69        27.6893   29.7196   32.6354 C.ar      1 UNK         0.0000 
     70 H70        27.3066   29.3968   31.6711 H         1 UNK         0.0000 
     71 C71        24.9049   33.9217   27.5291 C.3       1 UNK         0.0000 
     72 H72        25.1436   34.7659   28.1881 H         1 UNK         0.0000 
     73 H73        23.8112   33.8644   27.4705 H         1 UNK         0.0000 
     74 H74        25.3886   33.9560   26.5448 H         1 UNK         0.0000 
     75 S75        25.4948   32.4594   28.3374 S.3       1 UNK         0.0000 
     76 C76        24.8903   31.4647   26.9396 C.3       1 UNK         0.0000 
     77 H77        25.6883   31.3850   26.1915 H         1 UNK         0.0000 
     78 H78        23.9337   31.7458   26.4825 H         1 UNK         0.0000 
     79 H79        24.7278   30.4516   27.3274 H         1 UNK         0.0000 
     80 O80        24.5665   32.2945   29.4588 O.2       1 UNK         0.0000 
@<TRIPOS>BOND
     1    1    2 1    
     2    1    5 1    
     3    1    3 1    
     4    1    4 1    
     5    5   14 1    
     6    5   10 1    
     7    5    6 1    
     8    6    8 1    
     9    6    7 1    
    10    6    9 1    
    11   10   13 1    
    12   10   11 1    
    13   10   12 1    
    14   14   15 1    
    15   15   16 2    
    16   15   17 am   BACKBONE|DICT|INTERRES
    17   17   19 1    
    18   17   18 1    
    19   19   24 1    
    20   19   20 1    
    21   19   25 1    
    22   20   21 am   BACKBONE|DICT|INTERRES
    23   20   23 2    
    24   21   58 1    
    25   21   22 1    
    26   25   27 1    
    27   25   26 1    
    28   25   28 1    
    29   28   33 ar   
    30   28   29 ar   
    31   29   30 ar   
    32   29   32 1    
    33   30   37 ar   
    34   30   31 1    
    35   33   34 1    
    36   33   35 ar   
    37   35   36 1    
    38   35   37 ar   
    39   37   38 1    
    40   38   39 1    
    41   39   40 ar   
    42   39   44 ar   
    43   40   41 ar   
    44   40   43 1    
    45   41   42 1    
    46   41   48 ar   
    47   44   46 ar   
    48   44   45 1    
    49   46   48 ar   
    50   46   47 1    
    51   48   49 1    
    52   49   51 1    
    53   49   50 2    
    54   51   54 1    
    55   51   53 1    
    56   51   52 1    
    57   54   56 am   BACKBONE|DICT|INTERRES
    58   54   55 1    
    59   56   58 1    
    60   56   57 2    
    61   58   60 1    
    62   58   59 1    
    63   60   61 ar   
    64   60   69 ar   
    65   61   63 ar   
    66   61   62 1    
    67   63   64 1    
    68   63   65 ar   
    69   65   66 1    
    70   65   67 ar   
    71   67   68 1    
    72   67   69 ar   
    73   69   70 1    
    74   71   72 1    
    75   71   75 1    
    76   71   73 1    
    77   71   74 1    
    78   75   80 2    
    79   75   76 1    
    80   76   79 1    
    81   76   77 1    
    82   76   78 1    
@<TRIPOS>SUBSTRUCTURE
     1 UNK         1 GROUP             0       ****    0 ROOT    
@<TRIPOS>MOLECULE
Cpd2-1500
80   82    1
SMALL
USER_CHARGES


@<TRIPOS>ATOM
      1 C1         20.9246   28.4482   26.7927 C.3       1 UNK         0.0000 
      2 H2         21.8526   28.1622   26.2816 H         1 UNK         0.0000 
      3 H3         20.4993   27.7773   27.5498 H         1 UNK         0.0000 
      4 H4         20.1761   28.5126   25.9935 H         1 UNK         0.0000 
      5 C5         21.0300   29.9608   27.2931 C.3       1 UNK         0.0000 
      6 C6         21.4670   30.7784   26.1146 C.3       1 UNK         0.0000 
      7 H7         20.6481   30.8635   25.3889 H         1 UNK         0.0000 
      8 H8         21.8906   31.7560   26.3749 H         1 UNK         0.0000 
      9 H9         22.2009   30.1462   25.6002 H         1 UNK         0.0000 
     10 C10        19.7744   30.5335   27.9437 C.3       1 UNK         0.0000 
     11 H11        18.9507   30.7232   27.2444 H         1 UNK         0.0000 
     12 H12        19.4524   29.9028   28.7809 H         1 UNK         0.0000 
     13 H13        19.9363   31.5261   28.3797 H         1 UNK         0.0000 
     14 O14        22.1171   30.1463   28.2006 O.3       1 UNK         0.0000 
     15 C15        22.1125   29.4445   29.3958 C.2       1 UNK         0.0000 
     16 O16        21.2257   28.7400   29.7932 O.2       1 UNK         0.0000 
     17 N17        23.4290   29.4280   29.8618 N.am      1 UNK         0.0000 
     18 H18        24.1043   30.0016   29.3709 H         1 UNK         0.0000 
     19 C19        23.8591   28.4316   30.8013 C.3       1 UNK         0.0000 
     20 C20        24.6917   29.0473   31.9643 C.2       1 UNK         0.0000 
     21 N21        25.1971   30.3498   31.8589 N.am      1 UNK         0.0000 
     22 H22        25.2114   30.8133   30.9592 H         1 UNK         0.0000 
     23 O23        24.7554   28.3738   33.0141 O.2       1 UNK         0.0000 
     24 H24        23.0058   27.9165   31.2575 H         1 UNK         0.0000 
     25 C25        24.5568   27.2763   30.1356 C.3       1 UNK         0.0000 
     26 H26        23.9031   26.8855   29.3448 H         1 UNK         0.0000 
     27 H27        24.7635   26.5140   30.8972 H         1 UNK         0.0000 
     28 C28        25.8930   27.6335   29.5998 C.ar      1 UNK         0.0000 
     29 C29        26.0596   28.3958   28.3509 C.ar      1 UNK         0.0000 
     30 C30        27.3489   28.7241   27.8450 C.ar      1 UNK         0.0000 
     31 H31        27.4493   29.3844   26.9888 H         1 UNK         0.0000 
     32 H32        25.1924   28.7347   27.7912 H         1 UNK         0.0000 
     33 C33        27.0919   27.0990   30.1724 C.ar      1 UNK         0.0000 
     34 H34        27.0496   26.5131   31.0861 H         1 UNK         0.0000 
     35 C35        28.3739   27.4098   29.6528 C.ar      1 UNK         0.0000 
     36 H36        29.2490   26.9788   30.1313 H         1 UNK         0.0000 
     37 C37        28.4405   28.2629   28.5193 C.ar      1 UNK         0.0000 
     38 O38        29.6570   28.8290   28.2424 O.3       1 UNK         0.0000 
     39 C39        29.6958   30.1444   28.6438 C.ar      1 UNK         0.0000 
     40 C40        29.6812   30.4093   30.0180 C.ar      1 UNK         0.0000 
     41 C41        29.1946   31.6569   30.5352 C.ar      1 UNK         0.0000 
     42 H42        28.8378   31.8338   31.5448 H         1 UNK         0.0000 
     43 H43        29.9155   29.6039   30.7073 H         1 UNK         0.0000 
     44 C44        29.4195   31.1804   27.6958 C.ar      1 UNK         0.0000 
     45 H45        29.3623   30.8199   26.6733 H         1 UNK         0.0000 
     46 C46        29.0986   32.4469   28.2524 C.ar      1 UNK         0.0000 
     47 H47        28.9109   33.2647   27.5628 H         1 UNK         0.0000 
     48 C48        28.9118   32.6541   29.5881 C.ar      1 UNK         0.0000 
     49 C49        28.1707   33.8879   29.9193 C.2       1 UNK         0.0000 
     50 O50        28.0423   34.8146   29.1531 O.2       1 UNK         0.0000 
     51 C51        27.5693   33.8987   31.3858 C.3       1 UNK         0.0000 
     52 H52        28.3454   33.6359   32.1148 H         1 UNK         0.0000 
     53 H53        27.1091   34.8815   31.5429 H         1 UNK         0.0000 
     54 N54        26.5204   32.8657   31.5960 N.am      1 UNK         0.0000 
     55 H55        26.5430   32.1313   30.8987 H         1 UNK         0.0000 
     56 C56        26.0859   32.4703   32.8561 C.2       1 UNK         0.0000 
     57 O57        26.0423   33.3311   33.7220 O.2       1 UNK         0.0000 
     58 C58        25.7254   30.9966   33.0637 C.3       1 UNK         0.0000 
     59 H59        24.9106   30.9473   33.7958 H         1 UNK         0.0000 
     60 C60        27.0516   30.3535   33.6263 C.ar      1 UNK         0.0000 
     61 C61        27.4552   30.4722   35.0293 C.ar      1 UNK         0.0000 
     62 H62        26.9268   31.0515   35.7797 H         1 UNK         0.0000 
     63 C63        28.6297   29.8976   35.5602 C.ar      1 UNK         0.0000 
     64 H64        28.8165   30.0542   36.6174 H         1 UNK         0.0000 
     65 C65        29.5260   29.2368   34.7246 C.ar      1 UNK         0.0000 
     66 H66        30.4932   28.9054   35.0892 H         1 UNK         0.0000 
     67 C67        29.1801   29.0976   33.3768 C.ar      1 UNK         0.0000 
     68 H68        29.8066   28.4745   32.7453 H         1 UNK         0.0000 
     69 C69        27.9735   29.6395   32.8382 C.ar      1 UNK         0.0000 
     70 H70        27.7583   29.4053   31.8002 H         1 UNK         0.0000 
     71 C71        24.8767   33.6252   27.6392 C.3       1 UNK         0.0000 
     72 H72        23.8052   33.3917   27.6226 H         1 UNK         0.0000 
     73 H73        25.0269   34.3202   26.8035 H         1 UNK         0.0000 
     74 H74        25.1420   34.1864   28.5439 H         1 UNK         0.0000 
     75 S75        25.9298   32.2050   27.5649 S.3       1 UNK         0.0000 
     76 C76        25.0276   31.2091   26.3412 C.3       1 UNK         0.0000 
     77 H77        24.9154   31.8814   25.4811 H         1 UNK         0.0000 
     78 H78        24.0327   30.9416   26.7163 H         1 UNK         0.0000 
     79 H79        25.6722   30.3788   26.0293 H         1 UNK         0.0000 
     80 O80        25.6452   31.5187   28.9082 O.2       1 UNK         0.0000 
@<TRIPOS>BOND
     1    1    5 1    
     2    1    3 1    
     3    1    2 1    
     4    1    4 1    
     5    5   10 1    
     6    5   14 1    
     7    5    6 1    
     8    6    8 1    
     9    6    7 1    
    10    6    9 1    
    11   10   13 1    
    12   10   12 1    
    13   10   11 1    
    14   14   15 1    
    15   15   17 am   BACKBONE|DICT|INTERRES
    16   15   16 2    
    17   17   19 1    
    18   17   18 1    
    19   19   24 1    
    20   19   20 1    
    21   19   25 1    
    22   20   23 2    
    23   20   21 am   BACKBONE|DICT|INTERRES
    24   21   58 1    
    25   21   22 1    
    26   25   27 1    
    27   25   26 1    
    28   25   28 1    
    29   28   33 ar   
    30   28   29 ar   
    31   29   30 ar   
    32   29   32 1    
    33   30   37 ar   
    34   30   31 1    
    35   33   34 1    
    36   33   35 ar   
    37   35   36 1    
    38   35   37 ar   
    39   37   38 1    
    40   38   39 1    
    41   39   40 ar   
    42   39   44 ar   
    43   40   41 ar   
    44   40   43 1    
    45   41   42 1    
    46   41   48 ar   
    47   44   46 ar   
    48   44   45 1    
    49   46   48 ar   
    50   46   47 1    
    51   48   49 1    
    52   49   51 1    
    53   49   50 2    
    54   51   53 1    
    55   51   54 1    
    56   51   52 1    
    57   54   56 am   BACKBONE|DICT|INTERRES
    58   54   55 1    
    59   56   58 1    
    60   56   57 2    
    61   58   60 1    
    62   58   59 1    
    63   60   61 ar   
    64   60   69 ar   
    65   61   63 ar   
    66   61   62 1    
    67   63   64 1    
    68   63   65 ar   
    69   65   66 1    
    70   65   67 ar   
    71   67   68 1    
    72   67   69 ar   
    73   69   70 1    
    74   71   72 1    
    75   71   74 1    
    76   71   73 1    
    77   71   75 1    
    78   75   80 2    
    79   75   76 1    
    80   76   78 1    
    81   76   77 1    
    82   76   79 1    
@<TRIPOS>SUBSTRUCTURE
     1 UNK         1 GROUP             0       ****    0 ROOT    
@<TRIPOS>MOLECULE
Cpd2-2000
80   82    1
SMALL
USER_CHARGES


@<TRIPOS>ATOM
      1 C1         22.1572   27.7135   26.2683 C.3       1 UNK         0.0000 
      2 H2         23.2526   27.6780   26.2536 H         1 UNK         0.0000 
      3 H3         21.7515   26.9580   26.9530 H         1 UNK         0.0000 
      4 H4         21.8151   27.3269   25.3005 H         1 UNK         0.0000 
      5 C5         21.5575   29.0893   26.7790 C.3       1 UNK         0.0000 
      6 C6         21.8124   30.2133   25.6811 C.3       1 UNK         0.0000 
      7 H7         21.3957   29.7189   24.7942 H         1 UNK         0.0000 
      8 H8         21.3430   31.1770   25.9136 H         1 UNK         0.0000 
      9 H9         22.8992   30.2980   25.5586 H         1 UNK         0.0000 
     10 C10        20.0490   29.1895   27.1185 C.3       1 UNK         0.0000 
     11 H11        19.3376   29.5969   26.3894 H         1 UNK         0.0000 
     12 H12        19.7600   28.2330   27.5731 H         1 UNK         0.0000 
     13 H13        19.9788   29.8737   27.9722 H         1 UNK         0.0000 
     14 O14        22.3413   29.5029   27.9073 O.3       1 UNK         0.0000 
     15 C15        22.2033   28.8321   29.0979 C.2       1 UNK         0.0000 
     16 O16        21.3817   27.9482   29.3813 O.2       1 UNK         0.0000 
     17 N17        23.3355   28.9711   29.8556 N.am      1 UNK         0.0000 
     18 H18        24.0311   29.6470   29.5619 H         1 UNK         0.0000 
     19 C19        23.8057   28.0915   30.9555 C.3       1 UNK         0.0000 
     20 C20        24.2496   28.9186   32.1493 C.2       1 UNK         0.0000 
     21 N21        24.9482   30.1296   31.9143 N.am      1 UNK         0.0000 
     22 H22        25.1330   30.3516   30.9444 H         1 UNK         0.0000 
     23 O23        24.0045   28.4755   33.2641 O.2       1 UNK         0.0000 
     24 H24        22.9661   27.5369   31.3938 H         1 UNK         0.0000 
     25 C25        24.9427   27.1142   30.5797 C.3       1 UNK         0.0000 
     26 H26        24.5664   26.3421   29.8968 H         1 UNK         0.0000 
     27 H27        25.3662   26.6694   31.4890 H         1 UNK         0.0000 
     28 C28        26.0946   27.7278   29.8615 C.ar      1 UNK         0.0000 
     29 C29        26.0562   27.6063   28.3747 C.ar      1 UNK         0.0000 
     30 C30        27.2371   28.0654   27.6824 C.ar      1 UNK         0.0000 
     31 H31        27.2638   28.0019   26.5981 H         1 UNK         0.0000 
     32 H32        25.2894   27.2435   27.6981 H         1 UNK         0.0000 
     33 C33        27.1951   28.1493   30.5710 C.ar      1 UNK         0.0000 
     34 H34        27.2754   28.0631   31.6508 H         1 UNK         0.0000 
     35 C35        28.3658   28.4156   29.8623 C.ar      1 UNK         0.0000 
     36 H36        29.2771   28.7191   30.3702 H         1 UNK         0.0000 
     37 C37        28.3898   28.4481   28.4642 C.ar      1 UNK         0.0000 
     38 O38        29.4530   29.0381   27.8148 O.3       1 UNK         0.0000 
     39 C39        29.6625   30.3160   28.1376 C.ar      1 UNK         0.0000 
     40 C40        30.5460   30.6740   29.1758 C.ar      1 UNK         0.0000 
     41 C41        30.2736   31.9015   29.8375 C.ar      1 UNK         0.0000 
     42 H42        30.8346   32.1016   30.7463 H         1 UNK         0.0000 
     43 H43        31.3107   29.9677   29.4847 H         1 UNK         0.0000 
     44 C44        28.5579   31.1627   27.8193 C.ar      1 UNK         0.0000 
     45 H45        27.8048   30.8147   27.1175 H         1 UNK         0.0000 
     46 C46        28.3783   32.4088   28.4424 C.ar      1 UNK         0.0000 
     47 H47        27.4632   32.9515   28.2249 H         1 UNK         0.0000 
     48 C48        29.1794   32.6791   29.5439 C.ar      1 UNK         0.0000 
     49 C49        28.7002   33.6389   30.5772 C.2       1 UNK         0.0000 
     50 O50        29.4629   34.2879   31.2823 O.2       1 UNK         0.0000 
     51 C51        27.1794   33.8773   30.7566 C.3       1 UNK         0.0000 
     52 H52        27.1404   34.6911   31.4917 H         1 UNK         0.0000 
     53 H53        26.7596   34.2610   29.8195 H         1 UNK         0.0000 
     54 N54        26.5380   32.5824   31.2335 N.am      1 UNK         0.0000 
     55 H55        26.8576   31.7642   30.7305 H         1 UNK         0.0000 
     56 C56        25.8377   32.4537   32.3548 C.2       1 UNK         0.0000 
     57 O57        25.5272   33.3938   33.0416 O.2       1 UNK         0.0000 
     58 C58        25.4975   31.0339   32.8899 C.3       1 UNK         0.0000 
     59 H59        24.6509   31.2526   33.5514 H         1 UNK         0.0000 
     60 C60        26.6691   30.4902   33.6948 C.ar      1 UNK         0.0000 
     61 C61        26.2914   29.9702   34.9630 C.ar      1 UNK         0.0000 
     62 H62        25.2667   30.0817   35.3064 H         1 UNK         0.0000 
     63 C63        27.2581   29.4198   35.8248 C.ar      1 UNK         0.0000 
     64 H64        26.8614   29.2832   36.8260 H         1 UNK         0.0000 
     65 C65        28.6213   29.4459   35.4183 C.ar      1 UNK         0.0000 
     66 H66        29.3790   29.1718   36.1461 H         1 UNK         0.0000 
     67 C67        29.0595   29.9659   34.1607 C.ar      1 UNK         0.0000 
     68 H68        30.1297   29.8998   33.9883 H         1 UNK         0.0000 
     69 C69        28.0868   30.5465   33.3577 C.ar      1 UNK         0.0000 
     70 H70        28.3649   30.8901   32.3662 H         1 UNK         0.0000 
     71 C71        24.5288   33.6925   27.7813 C.3       1 UNK         0.0000 
     72 H72        23.9587   34.5687   27.4469 H         1 UNK         0.0000 
     73 H73        24.9439   33.1827   26.9031 H         1 UNK         0.0000 
     74 H74        25.3615   34.0732   28.3847 H         1 UNK         0.0000 
     75 S75        23.7077   32.4155   28.6903 S.3       1 UNK         0.0000 
     76 C76        23.2214   33.3365   30.0989 C.3       1 UNK         0.0000 
     77 H77        22.5973   32.7724   30.8025 H         1 UNK         0.0000 
     78 H78        22.7685   34.2958   29.8194 H         1 UNK         0.0000 
     79 H79        24.1807   33.5522   30.5857 H         1 UNK         0.0000 
     80 O80        24.8733   31.4978   29.1255 O.2       1 UNK         0.0000 
@<TRIPOS>BOND
     1    1    5 1    
     2    1    3 1    
     3    1    2 1    
     4    1    4 1    
     5    5   10 1    
     6    5   14 1    
     7    5    6 1    
     8    6    8 1    
     9    6    7 1    
    10    6    9 1    
    11   10   12 1    
    12   10   13 1    
    13   10   11 1    
    14   14   15 1    
    15   15   16 2    
    16   15   17 am   BACKBONE|DICT|INTERRES
    17   17   19 1    
    18   17   18 1    
    19   19   24 1    
    20   19   20 1    
    21   19   25 1    
    22   20   23 2    
    23   20   21 am   BACKBONE|DICT|INTERRES
    24   21   58 1    
    25   21   22 1    
    26   25   27 1    
    27   25   26 1    
    28   25   28 1    
    29   28   33 ar   
    30   28   29 ar   
    31   29   30 ar   
    32   29   32 1    
    33   30   37 ar   
    34   30   31 1    
    35   33   34 1    
    36   33   35 ar   
    37   35   36 1    
    38   35   37 ar   
    39   37   38 1    
    40   38   39 1    
    41   39   40 ar   
    42   39   44 ar   
    43   40   43 1    
    44   40   41 ar   
    45   41   42 1    
    46   41   48 ar   
    47   44   46 ar   
    48   44   45 1    
    49   46   48 ar   
    50   46   47 1    
    51   48   49 1    
    52   49   51 1    
    53   49   50 2    
    54   51   54 1    
    55   51   52 1    
    56   51   53 1    
    57   54   56 am   BACKBONE|DICT|INTERRES
    58   54   55 1    
    59   56   58 1    
    60   56   57 2    
    61   58   59 1    
    62   58   60 1    
    63   60   61 ar   
    64   60   69 ar   
    65   61   62 1    
    66   61   63 ar   
    67   63   64 1    
    68   63   65 ar   
    69   65   66 1    
    70   65   67 ar   
    71   67   68 1    
    72   67   69 ar   
    73   69   70 1    
    74   71   74 1    
    75   71   75 1    
    76   71   72 1    
    77   71   73 1    
    78   75   80 2    
    79   75   76 1    
    80   76   79 1    
    81   76   77 1    
    82   76   78 1    
@<TRIPOS>SUBSTRUCTURE
     1 UNK         1 GROUP             0       ****    0 ROOT    
@<TRIPOS>MOLECULE
Cpd2-2500
80   82    1
SMALL
USER_CHARGES


@<TRIPOS>ATOM
      1 C1         22.0214   29.8663   25.9866 C.3       1 UNK         0.0000 
      2 H2         21.6095   30.2968   25.0656 H         1 UNK         0.0000 
      3 H3         23.0890   30.0758   26.1264 H         1 UNK         0.0000 
      4 H4         21.9047   28.7756   25.9870 H         1 UNK         0.0000 
      5 C5         21.3932   30.4879   27.2229 C.3       1 UNK         0.0000 
      6 C6         21.3410   31.9558   26.8995 C.3       1 UNK         0.0000 
      7 H7         22.3158   32.4008   26.6646 H         1 UNK         0.0000 
      8 H8         20.6592   32.3080   26.1157 H         1 UNK         0.0000 
      9 H9         20.9766   32.5240   27.7629 H         1 UNK         0.0000 
     10 C10        19.9772   30.0544   27.6055 C.3       1 UNK         0.0000 
     11 H11        19.8757   28.9672   27.5027 H         1 UNK         0.0000 
     12 H12        19.7950   30.2706   28.6661 H         1 UNK         0.0000 
     13 H13        19.3073   30.6049   26.9353 H         1 UNK         0.0000 
     14 O14        22.2656   30.3653   28.2968 O.3       1 UNK         0.0000 
     15 C15        22.5537   29.1809   28.8245 C.2       1 UNK         0.0000 
     16 O16        22.1613   28.1177   28.3937 O.2       1 UNK         0.0000 
     17 N17        23.4564   29.4031   29.8178 N.am      1 UNK         0.0000 
     18 H18        23.8432   30.3350   29.9009 H         1 UNK         0.0000 
     19 C19        23.9370   28.4175   30.7893 C.3       1 UNK         0.0000 
     20 C20        24.6722   29.0081   32.0056 C.2       1 UNK         0.0000 
     21 N21        25.1136   30.3159   31.9051 N.am      1 UNK         0.0000 
     22 H22        25.0735   30.6967   30.9684 H         1 UNK         0.0000 
     23 O23        24.7681   28.3145   33.0138 O.2       1 UNK         0.0000 
     24 H24        23.0063   28.0659   31.2508 H         1 UNK         0.0000 
     25 C25        24.5706   27.1417   30.1772 C.3       1 UNK         0.0000 
     26 H26        23.7708   26.7013   29.5696 H         1 UNK         0.0000 
     27 H27        24.7796   26.4257   30.9820 H         1 UNK         0.0000 
     28 C28        25.8926   27.4605   29.5143 C.ar      1 UNK         0.0000 
     29 C29        25.9148   28.1090   28.3193 C.ar      1 UNK         0.0000 
     30 C30        27.2472   28.5653   27.9244 C.ar      1 UNK         0.0000 
     31 H31        27.2106   29.1937   27.0391 H         1 UNK         0.0000 
     32 H32        25.0819   28.6017   27.8253 H         1 UNK         0.0000 
     33 C33        27.0188   26.9835   30.1833 C.ar      1 UNK         0.0000 
     34 H34        26.9453   26.3058   31.0287 H         1 UNK         0.0000 
     35 C35        28.2888   27.4800   29.7708 C.ar      1 UNK         0.0000 
     36 H36        29.1614   27.1835   30.3459 H         1 UNK         0.0000 
     37 C37        28.3993   28.2911   28.6418 C.ar      1 UNK         0.0000 
     38 O38        29.5738   28.9171   28.2785 O.3       1 UNK         0.0000 
     39 C39        29.7241   30.1974   28.5820 C.ar      1 UNK         0.0000 
     40 C40        29.9400   30.4831   29.9195 C.ar      1 UNK         0.0000 
     41 C41        29.5667   31.7908   30.3183 C.ar      1 UNK         0.0000 
     42 H42        29.7714   31.9887   31.3671 H         1 UNK         0.0000 
     43 H43        30.2692   29.7212   30.6208 H         1 UNK         0.0000 
     44 C44        29.3480   31.1778   27.6716 C.ar      1 UNK         0.0000 
     45 H45        29.2006   30.8346   26.6521 H         1 UNK         0.0000 
     46 C46        28.9417   32.4814   28.1194 C.ar      1 UNK         0.0000 
     47 H47        28.5579   33.1581   27.3614 H         1 UNK         0.0000 
     48 C48        29.0335   32.7653   29.4857 C.ar      1 UNK         0.0000 
     49 C49        28.3994   33.9540   30.1293 C.2       1 UNK         0.0000 
     50 O50        28.1759   35.0117   29.5007 O.2       1 UNK         0.0000 
     51 C51        27.7885   33.8108   31.5635 C.3       1 UNK         0.0000 
     52 H52        28.6169   33.4860   32.2063 H         1 UNK         0.0000 
     53 H53        27.4260   34.8198   31.7962 H         1 UNK         0.0000 
     54 N54        26.6717   32.8044   31.5838 N.am      1 UNK         0.0000 
     55 H55        26.6917   32.0244   30.9376 H         1 UNK         0.0000 
     56 C56        25.9159   32.5645   32.7111 C.2       1 UNK         0.0000 
     57 O57        25.5465   33.4223   33.4762 O.2       1 UNK         0.0000 
     58 C58        25.6343   31.1222   33.0016 C.3       1 UNK         0.0000 
     59 H59        24.8637   31.1929   33.7791 H         1 UNK         0.0000 
     60 C60        26.8619   30.5129   33.6047 C.ar      1 UNK         0.0000 
     61 C61        26.9416   30.3344   35.0143 C.ar      1 UNK         0.0000 
     62 H62        26.1450   30.7089   35.6495 H         1 UNK         0.0000 
     63 C63        28.1123   29.7948   35.5088 C.ar      1 UNK         0.0000 
     64 H64        28.1884   29.9060   36.5857 H         1 UNK         0.0000 
     65 C65        29.2453   29.4819   34.7358 C.ar      1 UNK         0.0000 
     66 H66        30.1258   29.0210   35.1744 H         1 UNK         0.0000 
     67 C67        29.1367   29.5818   33.3162 C.ar      1 UNK         0.0000 
     68 H68        29.9198   29.2562   32.6385 H         1 UNK         0.0000 
     69 C69        27.8991   30.0644   32.8102 C.ar      1 UNK         0.0000 
     70 H70        27.8255   30.2034   31.7355 H         1 UNK         0.0000 
     71 C71        25.2968   32.1078   26.7022 C.3       1 UNK         0.0000 
     72 H72        24.9403   32.9997   26.1713 H         1 UNK         0.0000 
     73 H73        25.0674   31.1571   26.2050 H         1 UNK         0.0000 
     74 H74        26.3863   32.1855   26.7995 H         1 UNK         0.0000 
     75 S75        24.6572   32.1342   28.3941 S.3       1 UNK         0.0000 
     76 C76        25.0001   33.9239   28.4807 C.3       1 UNK         0.0000 
     77 H77        24.3531   34.5957   27.9045 H         1 UNK         0.0000 
     78 H78        26.0335   34.0841   28.1501 H         1 UNK         0.0000 
     79 H79        24.9918   34.2830   29.5175 H         1 UNK         0.0000 
     80 O80        25.6250   31.5576   29.3897 O.2       1 UNK         0.0000 
@<TRIPOS>BOND
     1    1    4 1    
     2    1    3 1    
     3    1    5 1    
     4    1    2 1    
     5    5   10 1    
     6    5   14 1    
     7    5    6 1    
     8    6    9 1    
     9    6    7 1    
    10    6    8 1    
    11   10   12 1    
    12   10   11 1    
    13   10   13 1    
    14   14   15 1    
    15   15   17 am   BACKBONE|DICT|INTERRES
    16   15   16 2    
    17   17   18 1    
    18   17   19 1    
    19   19   24 1    
    20   19   20 1    
    21   19   25 1    
    22   20   23 2    
    23   20   21 am   BACKBONE|DICT|INTERRES
    24   21   58 1    
    25   21   22 1    
    26   25   27 1    
    27   25   26 1    
    28   25   28 1    
    29   28   33 ar   
    30   28   29 ar   
    31   29   30 ar   
    32   29   32 1    
    33   30   37 ar   
    34   30   31 1    
    35   33   34 1    
    36   33   35 ar   
    37   35   36 1    
    38   35   37 ar   
    39   37   38 1    
    40   38   39 1    
    41   39   40 ar   
    42   39   44 ar   
    43   40   41 ar   
    44   40   43 1    
    45   41   42 1    
    46   41   48 ar   
    47   44   46 ar   
    48   44   45 1    
    49   46   48 ar   
    50   46   47 1    
    51   48   49 1    
    52   49   51 1    
    53   49   50 2    
    54   51   54 1    
    55   51   53 1    
    56   51   52 1    
    57   54   56 am   BACKBONE|DICT|INTERRES
    58   54   55 1    
    59   56   58 1    
    60   56   57 2    
    61   58   60 1    
    62   58   59 1    
    63   60   61 ar   
    64   60   69 ar   
    65   61   63 ar   
    66   61   62 1    
    67   63   64 1    
    68   63   65 ar   
    69   65   66 1    
    70   65   67 ar   
    71   67   68 1    
    72   67   69 ar   
    73   69   70 1    
    74   71   74 1    
    75   71   75 1    
    76   71   72 1    
    77   71   73 1    
    78   75   76 1    
    79   75   80 2    
    80   76   79 1    
    81   76   77 1    
    82   76   78 1    
@<TRIPOS>SUBSTRUCTURE
     1 UNK         1 GROUP             0       ****    0 ROOT    
@<TRIPOS>MOLECULE
Cpd2-3000
80   82    1
SMALL
USER_CHARGES


@<TRIPOS>ATOM
      1 C1         19.4693   30.9988   30.1102 C.3       1 UNK         0.0000 
      2 H2         18.8357   31.8866   29.9960 H         1 UNK         0.0000 
      3 H3         19.1706   30.2386   29.3790 H         1 UNK         0.0000 
      4 H4         19.3290   30.6165   31.1289 H         1 UNK         0.0000 
      5 C5         20.8953   31.4403   29.8983 C.3       1 UNK         0.0000 
      6 C6         20.9705   32.1857   28.6077 C.3       1 UNK         0.0000 
      7 H7         20.5075   33.1767   28.5281 H         1 UNK         0.0000 
      8 H8         22.0134   32.3679   28.3229 H         1 UNK         0.0000 
      9 H9         20.5099   31.6621   27.7613 H         1 UNK         0.0000 
     10 C10        21.5542   32.1935   31.1008 C.3       1 UNK         0.0000 
     11 H11        21.7335   31.5201   31.9470 H         1 UNK         0.0000 
     12 H12        22.5073   32.5992   30.7416 H         1 UNK         0.0000 
     13 H13        20.9479   33.0643   31.3777 H         1 UNK         0.0000 
     14 O14        21.7818   30.2894   29.6363 O.3       1 UNK         0.0000 
     15 C15        21.8879   29.3012   30.5759 C.2       1 UNK         0.0000 
     16 O16        21.2405   29.0773   31.5939 O.2       1 UNK         0.0000 
     17 N17        22.8938   28.5089   30.2666 N.am      1 UNK         0.0000 
     18 H18        23.2120   28.5601   29.3059 H         1 UNK         0.0000 
     19 C19        23.8099   27.8685   31.2053 C.3       1 UNK         0.0000 
     20 C20        24.7498   28.7717   32.0312 C.2       1 UNK         0.0000 
     21 N21        24.9006   30.1186   31.6984 N.am      1 UNK         0.0000 
     22 H22        24.3655   30.3270   30.8635 H         1 UNK         0.0000 
     23 O23        25.2590   28.3274   33.0342 O.2       1 UNK         0.0000 
     24 H24        23.2653   27.3003   31.9684 H         1 UNK         0.0000 
     25 C25        24.5257   26.7807   30.5404 C.3       1 UNK         0.0000 
     26 H26        23.9286   26.2098   29.8194 H         1 UNK         0.0000 
     27 H27        24.7455   25.9697   31.2448 H         1 UNK         0.0000 
     28 C28        25.8164   27.3471   29.8823 C.ar      1 UNK         0.0000 
     29 C29        25.7714   27.8527   28.5797 C.ar      1 UNK         0.0000 
     30 C30        26.9472   28.4252   28.0389 C.ar      1 UNK         0.0000 
     31 H31        26.8580   28.8873   27.0602 H         1 UNK         0.0000 
     32 H32        24.8398   27.7313   28.0349 H         1 UNK         0.0000 
     33 C33        27.0564   27.3385   30.5960 C.ar      1 UNK         0.0000 
     34 H34        27.0510   26.9764   31.6204 H         1 UNK         0.0000 
     35 C35        28.2637   27.8599   29.9764 C.ar      1 UNK         0.0000 
     36 H36        29.1963   27.9610   30.5236 H         1 UNK         0.0000 
     37 C37        28.1805   28.4831   28.7271 C.ar      1 UNK         0.0000 
     38 O38        29.2007   29.1303   28.0922 O.3       1 UNK         0.0000 
     39 C39        29.2571   30.4761   28.4225 C.ar      1 UNK         0.0000 
     40 C40        30.3404   30.8810   29.1882 C.ar      1 UNK         0.0000 
     41 C41        30.3852   32.0959   29.6922 C.ar      1 UNK         0.0000 
     42 H42        31.2729   32.3835   30.2473 H         1 UNK         0.0000 
     43 H43        31.2112   30.2524   29.3501 H         1 UNK         0.0000 
     44 C44        28.2030   31.3574   28.2365 C.ar      1 UNK         0.0000 
     45 H45        27.4313   31.0412   27.5411 H         1 UNK         0.0000 
     46 C46        28.1393   32.5024   28.9330 C.ar      1 UNK         0.0000 
     47 H47        27.2212   33.0834   28.9387 H         1 UNK         0.0000 
     48 C48        29.2009   32.8807   29.7271 C.ar      1 UNK         0.0000 
     49 C49        28.9695   33.8969   30.8848 C.2       1 UNK         0.0000 
     50 O50        29.8766   34.2606   31.5829 O.2       1 UNK         0.0000 
     51 C51        27.5495   34.3814   31.2437 C.3       1 UNK         0.0000 
     52 H52        27.5811   35.2381   31.9273 H         1 UNK         0.0000 
     53 H53        26.9674   34.6127   30.3428 H         1 UNK         0.0000 
     54 N54        26.7371   33.3727   32.0249 N.am      1 UNK         0.0000 
     55 H55        27.1599   33.0488   32.8868 H         1 UNK         0.0000 
     56 C56        25.8879   32.4373   31.4685 C.2       1 UNK         0.0000 
     57 O57        25.3415   32.5618   30.4206 O.2       1 UNK         0.0000 
     58 C58        25.7138   31.1819   32.3592 C.3       1 UNK         0.0000 
     59 H59        25.1469   31.5717   33.2142 H         1 UNK         0.0000 
     60 C60        27.0455   30.7909   32.8867 C.ar      1 UNK         0.0000 
     61 C61        27.3310   30.6399   34.2208 C.ar      1 UNK         0.0000 
     62 H62        26.5116   30.7556   34.9237 H         1 UNK         0.0000 
     63 C63        28.6185   30.3434   34.6765 C.ar      1 UNK         0.0000 
     64 H64        28.7816   30.2265   35.7447 H         1 UNK         0.0000 
     65 C65        29.7169   30.0951   33.7329 C.ar      1 UNK         0.0000 
     66 H66        30.7325   29.8386   34.0182 H         1 UNK         0.0000 
     67 C67        29.4320   30.1941   32.3786 C.ar      1 UNK         0.0000 
     68 H68        30.2014   30.1083   31.6156 H         1 UNK         0.0000 
     69 C69        28.1139   30.5511   32.0245 C.ar      1 UNK         0.0000 
     70 H70        27.8650   30.5346   30.9671 H         1 UNK         0.0000 
     71 C71        24.0666   25.4968   26.1680 C.3       1 UNK         0.0000 
     72 H72        23.9624   24.5797   25.5750 H         1 UNK         0.0000 
     73 H73        24.6550   25.3446   27.0813 H         1 UNK         0.0000 
     74 H74        24.6605   26.2183   25.5930 H         1 UNK         0.0000 
     75 S75        22.4683   26.2245   26.6649 S.3       1 UNK         0.0000 
     76 C76        22.0693   26.4982   24.9385 C.3       1 UNK         0.0000 
     77 H77        22.7947   27.1240   24.4052 H         1 UNK         0.0000 
     78 H78        21.0182   26.7693   24.7820 H         1 UNK         0.0000 
     79 H79        22.1765   25.4979   24.5028 H         1 UNK         0.0000 
     80 O80        22.6700   27.5945   27.1504 O.2       1 UNK         0.0000 
@<TRIPOS>BOND
     1    1    4 1    
     2    1    2 1    
     3    1    3 1    
     4    1    5 1    
     5    5   10 1    
     6    5    6 1    
     7    5   14 1    
     8    6    7 1    
     9    6    8 1    
    10    6    9 1    
    11   10   13 1    
    12   10   11 1    
    13   10   12 1    
    14   14   15 1    
    15   15   16 2    
    16   15   17 am   BACKBONE|DICT|INTERRES
    17   17   19 1    
    18   17   18 1    
    19   19   24 1    
    20   19   20 1    
    21   19   25 1    
    22   20   23 2    
    23   20   21 am   BACKBONE|DICT|INTERRES
    24   21   58 1    
    25   21   22 1    
    26   25   27 1    
    27   25   26 1    
    28   25   28 1    
    29   28   33 ar   
    30   28   29 ar   
    31   29   30 ar   
    32   29   32 1    
    33   30   37 ar   
    34   30   31 1    
    35   33   34 1    
    36   33   35 ar   
    37   35   36 1    
    38   35   37 ar   
    39   37   38 1    
    40   38   39 1    
    41   39   40 ar   
    42   39   44 ar   
    43   40   43 1    
    44   40   41 ar   
    45   41   42 1    
    46   41   48 ar   
    47   44   46 ar   
    48   44   45 1    
    49   46   48 ar   
    50   46   47 1    
    51   48   49 1    
    52   49   51 1    
    53   49   50 2    
    54   51   52 1    
    55   51   54 1    
    56   51   53 1    
    57   54   55 1    
    58   54   56 am   BACKBONE|DICT|INTERRES
    59   56   58 1    
    60   56   57 2    
    61   58   60 1    
    62   58   59 1    
    63   60   61 ar   
    64   60   69 ar   
    65   61   62 1    
    66   61   63 ar   
    67   63   64 1    
    68   63   65 ar   
    69   65   66 1    
    70   65   67 ar   
    71   67   68 1    
    72   67   69 ar   
    73   69   70 1    
    74   71   75 1    
    75   71   73 1    
    76   71   72 1    
    77   71   74 1    
    78   75   80 2    
    79   75   76 1    
    80   76   77 1    
    81   76   78 1    
    82   76   79 1    
@<TRIPOS>SUBSTRUCTURE
     1 UNK         1 GROUP             0       ****    0 ROOT    
@<TRIPOS>MOLECULE
Cpd2-3500-MRC
80   82    1
SMALL
USER_CHARGES


@<TRIPOS>ATOM
      1 C1         22.8986   28.1935   25.7650 C.3       1 UNK         0.0000 
      2 H2         22.5585   28.0048   24.7407 H         1 UNK         0.0000 
      3 H3         23.8836   27.7266   25.8844 H         1 UNK         0.0000 
      4 H4         22.1779   27.7233   26.4450 H         1 UNK         0.0000 
      5 C5         22.9908   29.6856   26.0631 C.3       1 UNK         0.0000 
      6 C6         24.0349   30.2741   25.0629 C.3       1 UNK         0.0000 
      7 H7         23.7209   29.9531   24.0621 H         1 UNK         0.0000 
      8 H8         24.0983   31.3686   25.0714 H         1 UNK         0.0000 
      9 H9         25.0221   29.9051   25.3681 H         1 UNK         0.0000 
     10 C10        21.6774   30.3536   25.8303 C.3       1 UNK         0.0000 
     11 H11        21.3710   30.2694   24.7801 H         1 UNK         0.0000 
     12 H12        20.9199   29.8250   26.4225 H         1 UNK         0.0000 
     13 H13        21.7224   31.4176   26.0931 H         1 UNK         0.0000 
     14 O14        23.3635   30.0865   27.3791 O.3       1 UNK         0.0000 
     15 C15        22.9140   29.3863   28.4574 C.2       1 UNK         0.0000 
     16 O16        21.9570   28.6990   28.5523 O.2       1 UNK         0.0000 
     17 N17        23.8537   29.5413   29.4224 N.am      1 UNK         0.0000 
     18 H18        24.6443   30.1594   29.2846 H         1 UNK         0.0000 
     19 C19        23.9117   28.7281   30.5653 C.3       1 UNK         0.0000 
     20 C20        24.5680   29.3303   31.8827 C.2       1 UNK         0.0000 
     21 N21        25.0386   30.6467   31.8754 N.am      1 UNK         0.0000 
     22 H22        24.7307   31.2619   31.1322 H         1 UNK         0.0000 
     23 O23        24.5565   28.5652   32.8536 O.2       1 UNK         0.0000 
     24 H24        22.8890   28.5439   30.9175 H         1 UNK         0.0000 
     25 C25        24.6024   27.3702   30.1192 C.3       1 UNK         0.0000 
     26 H26        23.8991   26.8780   29.4361 H         1 UNK         0.0000 
     27 H27        24.6944   26.7600   31.0259 H         1 UNK         0.0000 
     28 C28        25.9853   27.3950   29.4667 C.ar      1 UNK         0.0000 
     29 C29        26.1272   27.9130   28.1879 C.ar      1 UNK         0.0000 
     30 C30        27.4393   28.3523   27.7780 C.ar      1 UNK         0.0000 
     31 H31        27.5912   28.9517   26.8853 H         1 UNK         0.0000 
     32 H32        25.2419   28.2208   27.6383 H         1 UNK         0.0000 
     33 C33        27.1406   27.1043   30.2323 C.ar      1 UNK         0.0000 
     34 H34        26.9771   26.7793   31.2560 H         1 UNK         0.0000 
     35 C35        28.4747   27.3851   29.7464 C.ar      1 UNK         0.0000 
     36 H36        29.3586   27.1936   30.3487 H         1 UNK         0.0000 
     37 C37        28.5770   28.1082   28.5441 C.ar      1 UNK         0.0000 
     38 O38        29.7372   28.8717   28.2380 O.3       1 UNK         0.0000 
     39 C39        29.5667   30.1715   28.6239 C.ar      1 UNK         0.0000 
     40 C40        29.7629   30.5391   29.9234 C.ar      1 UNK         0.0000 
     41 C41        29.3491   31.7786   30.4143 C.ar      1 UNK         0.0000 
     42 H42        29.4967   32.0681   31.4500 H         1 UNK         0.0000 
     43 H43        30.2801   29.8055   30.5351 H         1 UNK         0.0000 
     44 C44        29.0560   31.0772   27.6938 C.ar      1 UNK         0.0000 
     45 H45        28.7759   30.7150   26.7097 H         1 UNK         0.0000 
     46 C46        28.5996   32.3607   28.1490 C.ar      1 UNK         0.0000 
     47 H47        28.0321   32.9810   27.4622 H         1 UNK         0.0000 
     48 C48        28.6952   32.6312   29.5207 C.ar      1 UNK         0.0000 
     49 C49        28.0203   33.8755   30.0307 C.2       1 UNK         0.0000 
     50 O50        27.8815   34.8634   29.3075 O.2       1 UNK         0.0000 
     51 C51        27.5733   33.9441   31.5029 C.3       1 UNK         0.0000 
     52 H52        28.4288   34.0906   32.1746 H         1 UNK         0.0000 
     53 H53        26.8779   34.7658   31.7139 H         1 UNK         0.0000 
     54 N54        26.8737   32.6788   31.8207 N.am      1 UNK         0.0000 
     55 H55        26.7295   31.9909   31.0925 H         1 UNK         0.0000 
     56 C56        26.3877   32.4737   33.0379 C.2       1 UNK         0.0000 
     57 O57        26.4130   33.3057   33.9319 O.2       1 UNK         0.0000 
     58 C58        25.7453   31.1201   33.1399 C.3       1 UNK         0.0000 
     59 H59        24.9899   31.3059   33.9127 H         1 UNK         0.0000 
     60 C60        26.6873   30.1259   33.7087 C.ar      1 UNK         0.0000 
     61 C61        26.3973   29.5857   34.9723 C.ar      1 UNK         0.0000 
     62 H62        25.5656   30.0076   35.5296 H         1 UNK         0.0000 
     63 C63        27.2362   28.5613   35.5022 C.ar      1 UNK         0.0000 
     64 H64        26.9676   28.1503   36.4709 H         1 UNK         0.0000 
     65 C65        28.3123   28.0669   34.7518 C.ar      1 UNK         0.0000 
     66 H66        28.9341   27.2551   35.1163 H         1 UNK         0.0000 
     67 C67        28.5334   28.5362   33.4890 C.ar      1 UNK         0.0000 
     68 H68        29.3349   28.0906   32.9078 H         1 UNK         0.0000 
     69 C69        27.7751   29.5695   32.9367 C.ar      1 UNK         0.0000 
     70 H70        28.0320   29.8415   31.9175 H         1 UNK         0.0000 
     71 C71        22.9200   33.2459   29.0353 C.3       1 UNK         0.0000 
     72 H72        22.6182   33.0481   30.0713 H         1 UNK         0.0000 
     73 H73        22.5747   32.3950   28.4360 H         1 UNK         0.0000 
     74 H74        22.3230   34.1150   28.7320 H         1 UNK         0.0000 
     75 S75        24.7084   33.5454   29.0444 S.3       1 UNK         0.0000 
     76 C76        24.8872   33.3027   27.2900 C.3       1 UNK         0.0000 
     77 H77        24.2894   32.4049   27.0949 H         1 UNK         0.0000 
     78 H78        25.9102   33.1861   26.9108 H         1 UNK         0.0000 
     79 H79        24.5617   34.2042   26.7558 H         1 UNK         0.0000 
     80 O80        25.2632   32.1998   29.5018 O.2       1 UNK         0.0000 
@<TRIPOS>BOND
     1    1    3 1    
     2    1    5 1    
     3    1    4 1    
     4    1    2 1    
     5    5   14 1    
     6    5    6 1    
     7    5   10 1    
     8    6    9 1    
     9    6    7 1    
    10    6    8 1    
    11   10   13 1    
    12   10   12 1    
    13   10   11 1    
    14   14   15 1    
    15   15   16 2    
    16   15   17 am   BACKBONE|DICT|INTERRES
    17   17   19 1    
    18   17   18 1    
    19   19   24 1    
    20   19   20 1    
    21   19   25 1    
    22   20   23 2    
    23   20   21 am   BACKBONE|DICT|INTERRES
    24   21   58 1    
    25   21   22 1    
    26   25   27 1    
    27   25   26 1    
    28   25   28 1    
    29   28   33 ar   
    30   28   29 ar   
    31   29   30 ar   
    32   29   32 1    
    33   30   37 ar   
    34   30   31 1    
    35   33   34 1    
    36   33   35 ar   
    37   35   36 1    
    38   35   37 ar   
    39   37   38 1    
    40   38   39 1    
    41   39   40 ar   
    42   39   44 ar   
    43   40   41 ar   
    44   40   43 1    
    45   41   42 1    
    46   41   48 ar   
    47   44   46 ar   
    48   44   45 1    
    49   46   48 ar   
    50   46   47 1    
    51   48   49 1    
    52   49   51 1    
    53   49   50 2    
    54   51   53 1    
    55   51   54 1    
    56   51   52 1    
    57   54   56 am   BACKBONE|DICT|INTERRES
    58   54   55 1    
    59   56   58 1    
    60   56   57 2    
    61   58   60 1    
    62   58   59 1    
    63   60   61 ar   
    64   60   69 ar   
    65   61   63 ar   
    66   61   62 1    
    67   63   64 1    
    68   63   65 ar   
    69   65   66 1    
    70   65   67 ar   
    71   67   68 1    
    72   67   69 ar   
    73   69   70 1    
    74   71   72 1    
    75   71   73 1    
    76   71   74 1    
    77   71   75 1    
    78   75   80 2    
    79   75   76 1    
    80   76   77 1    
    81   76   78 1    
    82   76   79 1    
@<TRIPOS>SUBSTRUCTURE
     1 UNK         1 GROUP             0       ****    0 ROOT    
@<TRIPOS>MOLECULE
Cpd2-4000-MEC
80   82    1
SMALL
USER_CHARGES


@<TRIPOS>ATOM
      1 C1         20.7560   26.9080   26.9670 C.3       1 UNK         0.0000 
      2 H2         20.2890   26.3350   27.7770 H         1 UNK         0.0000 
      3 H3         20.0600   26.6890   26.1490 H         1 UNK         0.0000 
      4 H4         21.7900   26.6470   26.7120 H         1 UNK         0.0000 
      5 C5         20.7240   28.3960   27.2800 C.3       1 UNK         0.0000 
      6 C6         20.8050   29.2070   26.0400 C.3       1 UNK         0.0000 
      7 H7         20.6450   30.2590   26.3040 H         1 UNK         0.0000 
      8 H8         21.7980   29.0300   25.6100 H         1 UNK         0.0000 
      9 H9         20.0200   29.0150   25.2990 H         1 UNK         0.0000 
     10 C10        19.4090   28.7030   28.0510 C.3       1 UNK         0.0000 
     11 H11        18.5050   28.3340   27.5510 H         1 UNK         0.0000 
     12 H12        19.4580   28.1360   28.9890 H         1 UNK         0.0000 
     13 H13        19.2620   29.7660   28.2800 H         1 UNK         0.0000 
     14 O14        21.8790   28.6030   28.1110 O.3       1 UNK         0.0000 
     15 C15        22.1140   28.0630   29.3090 C.2       1 UNK         0.0000 
     16 O16        21.3580   27.3010   29.9020 O.2       1 UNK         0.0000 
     17 N17        23.2740   28.4870   29.8610 N.am      1 UNK         0.0000 
     18 H18        23.9160   29.0240   29.2910 H         1 UNK         0.0000 
     19 C19        23.7490   27.9570   31.1490 C.3       1 UNK         0.0000 
     20 C20        24.4110   28.9050   32.1040 C.2       1 UNK         0.0000 
     21 N21        24.9300   30.0370   31.5920 N.am      1 UNK         0.0000 
     22 H22        24.7300   30.2620   30.6250 H         1 UNK         0.0000 
     23 O23        24.5260   28.5740   33.2830 O.2       1 UNK         0.0000 
     24 H24        22.9230   27.6010   31.7760 H         1 UNK         0.0000 
     25 C25        24.7930   26.8020   30.7970 C.3       1 UNK         0.0000 
     26 H26        24.2650   25.9490   30.3540 H         1 UNK         0.0000 
     27 H27        25.2090   26.4160   31.7350 H         1 UNK         0.0000 
     28 C28        26.0140   27.2970   29.9510 C.ar      1 UNK         0.0000 
     29 C29        25.8590   27.7630   28.6390 C.ar      1 UNK         0.0000 
     30 C30        26.9460   28.2930   27.9270 C.ar      1 UNK         0.0000 
     31 H31        26.8150   28.5020   26.8690 H         1 UNK         0.0000 
     32 H32        24.9840   27.3750   28.1250 H         1 UNK         0.0000 
     33 C33        27.2680   27.4510   30.5210 C.ar      1 UNK         0.0000 
     34 H34        27.4180   27.0580   31.5220 H         1 UNK         0.0000 
     35 C35        28.4410   27.8690   29.8010 C.ar      1 UNK         0.0000 
     36 H36        29.4190   27.8120   30.2710 H         1 UNK         0.0000 
     37 C37        28.1760   28.4650   28.5420 C.ar      1 UNK         0.0000 
     38 O38        29.1560   29.2450   27.8830 O.3       1 UNK         0.0000 
     39 C39        29.2300   30.4810   28.3710 C.ar      1 UNK         0.0000 
     40 C40        30.3310   30.8160   29.2110 C.ar      1 UNK         0.0000 
     41 C41        30.2870   32.0420   29.8880 C.ar      1 UNK         0.0000 
     42 H42        31.0590   32.3160   30.6010 H         1 UNK         0.0000 
     43 H43        31.2230   30.1970   29.2170 H         1 UNK         0.0000 
     44 C44        28.2280   31.4250   28.0990 C.ar      1 UNK         0.0000 
     45 H45        27.3890   31.2330   27.4370 H         1 UNK         0.0000 
     46 C46        28.2270   32.6630   28.7550 C.ar      1 UNK         0.0000 
     47 H47        27.3980   33.3260   28.5250 H         1 UNK         0.0000 
     48 C48        29.1890   32.8720   29.7420 C.ar      1 UNK         0.0000 
     49 C49        28.9690   33.9390   30.8580 C.2       1 UNK         0.0000 
     50 O50        29.9850   34.3420   31.4440 O.2       1 UNK         0.0000 
     51 C51        27.5320   34.2940   31.3470 C.3       1 UNK         0.0000 
     52 H52        27.6120   35.1650   32.0080 H         1 UNK         0.0000 
     53 H53        26.9910   34.6400   30.4580 H         1 UNK         0.0000 
     54 N54        26.8330   33.2570   32.1210 N.am      1 UNK         0.0000 
     55 H55        27.2570   33.0350   33.0140 H         1 UNK         0.0000 
     56 C56        25.9140   32.3220   31.5990 C.2       1 UNK         0.0000 
     57 O57        25.4070   32.4450   30.5510 O.2       1 UNK         0.0000 
     58 C58        25.6820   31.0340   32.4110 C.3       1 UNK         0.0000 
     59 H59        25.0070   31.3490   33.2160 H         1 UNK         0.0000 
     60 C60        26.9200   30.3410   33.0160 C.ar      1 UNK         0.0000 
     61 C61        26.9710   29.9200   34.3400 C.ar      1 UNK         0.0000 
     62 H62        26.1420   30.0230   35.0330 H         1 UNK         0.0000 
     63 C63        28.1870   29.4830   34.8770 C.ar      1 UNK         0.0000 
     64 H64        28.3420   29.0820   35.8750 H         1 UNK         0.0000 
     65 C65        29.3920   29.5080   34.1730 C.ar      1 UNK         0.0000 
     66 H66        30.3210   29.1750   34.6250 H         1 UNK         0.0000 
     67 C67        29.3530   29.8340   32.8000 C.ar      1 UNK         0.0000 
     68 H68        30.2280   29.8720   32.1580 H         1 UNK         0.0000 
     69 C69        28.1230   30.2130   32.2240 C.ar      1 UNK         0.0000 
     70 H70        28.2180   30.5400   31.1920 H         1 UNK         0.0000 
     71 C71        30.8360   33.0830   34.4250 C.3       1 UNK         0.0000 
     72 H72        31.2890   33.5080   33.5200 H         1 UNK         0.0000 
     73 H73        30.2880   32.1900   34.1010 H         1 UNK         0.0000 
     74 H74        31.6730   32.9180   35.1140 H         1 UNK         0.0000 
     75 S75        29.5880   34.2230   35.1950 S.3       1 UNK         0.0000 
     76 C76        28.9060   32.8730   36.2450 C.3       1 UNK         0.0000 
     77 H77        28.3480   33.2910   37.0920 H         1 UNK         0.0000 
     78 H78        29.7420   32.3250   36.6970 H         1 UNK         0.0000 
     79 H79        28.3050   32.2610   35.5610 H         1 UNK         0.0000 
     80 O80        28.5190   34.3640   34.1740 O.2       1 UNK         0.0000 
@<TRIPOS>BOND
     1    1    5 1    
     2    1    2 1    
     3    1    3 1    
     4    1    4 1    
     5    5   10 1    
     6    5   14 1    
     7    5    6 1    
     8    6    7 1    
     9    6    8 1    
    10    6    9 1    
    11   10   13 1    
    12   10   12 1    
    13   10   11 1    
    14   14   15 1    
    15   15   17 am   BACKBONE|DICT|INTERRES
    16   15   16 2    
    17   17   19 1    
    18   17   18 1    
    19   19   24 1    
    20   19   20 1    
    21   19   25 1    
    22   20   23 2    
    23   20   21 am   BACKBONE|DICT|INTERRES
    24   21   58 1    
    25   21   22 1    
    26   25   27 1    
    27   25   26 1    
    28   25   28 1    
    29   28   33 ar   
    30   28   29 ar   
    31   29   30 ar   
    32   29   32 1    
    33   30   37 ar   
    34   30   31 1    
    35   33   34 1    
    36   33   35 ar   
    37   35   36 1    
    38   35   37 ar   
    39   37   38 1    
    40   38   39 1    
    41   39   40 ar   
    42   39   44 ar   
    43   40   43 1    
    44   40   41 ar   
    45   41   42 1    
    46   41   48 ar   
    47   44   46 ar   
    48   44   45 1    
    49   46   48 ar   
    50   46   47 1    
    51   48   49 1    
    52   49   51 1    
    53   49   50 2    
    54   51   52 1    
    55   51   54 1    
    56   51   53 1    
    57   54   55 1    
    58   54   56 am   BACKBONE|DICT|INTERRES
    59   56   58 1    
    60   56   57 2    
    61   58   60 1    
    62   58   59 1    
    63   60   61 ar   
    64   60   69 ar   
    65   61   63 ar   
    66   61   62 1    
    67   63   64 1    
    68   63   65 ar   
    69   65   66 1    
    70   65   67 ar   
    71   67   68 1    
    72   67   69 ar   
    73   69   70 1    
    74   71   74 1    
    75   71   75 1    
    76   71   72 1    
    77   71   73 1    
    78   75   76 1    
    79   75   80 2    
    80   76   78 1    
    81   76   77 1    
    82   76   79 1    
@<TRIPOS>SUBSTRUCTURE
     1 UNK         1 GROUP             0       ****    0 ROOT    
@<TRIPOS>MOLECULE
Cpd2-4500
80   82    1
SMALL
USER_CHARGES


@<TRIPOS>ATOM
      1 C1         19.2656   30.8417   30.0257 C.3       1 UNK         0.0000 
      2 H2         18.8960   30.0004   29.4259 H         1 UNK         0.0000 
      3 H3         19.4245   30.3289   30.9820 H         1 UNK         0.0000 
      4 H4         18.5495   31.6683   30.1010 H         1 UNK         0.0000 
      5 C5         20.6175   31.2989   29.4631 C.3       1 UNK         0.0000 
      6 C6         20.3966   31.5384   27.8933 C.3       1 UNK         0.0000 
      7 H7         19.3794   31.9364   27.7878 H         1 UNK         0.0000 
      8 H8         21.1559   32.2542   27.5569 H         1 UNK         0.0000 
      9 H9         20.5221   30.6223   27.3034 H         1 UNK         0.0000 
     10 C10        21.1088   32.5579   30.1436 C.3       1 UNK         0.0000 
     11 H11        20.9640   32.5715   31.2308 H         1 UNK         0.0000 
     12 H12        22.1638   32.7711   29.9324 H         1 UNK         0.0000 
     13 H13        20.5653   33.3991   29.6962 H         1 UNK         0.0000 
     14 O14        21.5838   30.2635   29.4857 O.3       1 UNK         0.0000 
     15 C15        22.1500   29.7755   30.6585 C.2       1 UNK         0.0000 
     16 O16        21.9658   30.1371   31.8284 O.2       1 UNK         0.0000 
     17 N17        22.9190   28.7688   30.2703 N.am      1 UNK         0.0000 
     18 H18        22.9424   28.4317   29.3153 H         1 UNK         0.0000 
     19 C19        23.7523   28.0178   31.2489 C.3       1 UNK         0.0000 
     20 C20        24.6926   28.8485   32.1326 C.2       1 UNK         0.0000 
     21 N21        25.0847   30.1514   31.6909 N.am      1 UNK         0.0000 
     22 H22        24.8185   30.3914   30.7436 H         1 UNK         0.0000 
     23 O23        25.0774   28.4128   33.1837 O.2       1 UNK         0.0000 
     24 H24        23.0493   27.5358   31.9386 H         1 UNK         0.0000 
     25 C25        24.5844   26.8559   30.6308 C.3       1 UNK         0.0000 
     26 H26        23.8838   26.3200   29.9783 H         1 UNK         0.0000 
     27 H27        24.8474   26.1649   31.4417 H         1 UNK         0.0000 
     28 C28        25.8513   27.2178   29.8288 C.ar      1 UNK         0.0000 
     29 C29        25.8392   27.5388   28.4055 C.ar      1 UNK         0.0000 
     30 C30        26.9552   28.1201   27.7726 C.ar      1 UNK         0.0000 
     31 H31        26.9187   28.5565   26.7786 H         1 UNK         0.0000 
     32 H32        24.9785   27.4436   27.7514 H         1 UNK         0.0000 
     33 C33        27.0597   27.3695   30.4702 C.ar      1 UNK         0.0000 
     34 H34        27.1586   27.1108   31.5204 H         1 UNK         0.0000 
     35 C35        28.2166   27.9662   29.8424 C.ar      1 UNK         0.0000 
     36 H36        29.1752   28.1013   30.3351 H         1 UNK         0.0000 
     37 C37        28.0605   28.5000   28.5364 C.ar      1 UNK         0.0000 
     38 O38        29.0653   29.2640   28.0107 O.3       1 UNK         0.0000 
     39 C39        29.2989   30.5267   28.4048 C.ar      1 UNK         0.0000 
     40 C40        30.2482   30.7034   29.4461 C.ar      1 UNK         0.0000 
     41 C41        30.0641   31.8671   30.2644 C.ar      1 UNK         0.0000 
     42 H42        30.6704   31.9985   31.1553 H         1 UNK         0.0000 
     43 H43        30.9947   29.9944   29.7936 H         1 UNK         0.0000 
     44 C44        28.2691   31.5128   28.1253 C.ar      1 UNK         0.0000 
     45 H45        27.5508   31.3047   27.3385 H         1 UNK         0.0000 
     46 C46        28.2625   32.7147   28.8373 C.ar      1 UNK         0.0000 
     47 H47        27.5382   33.4948   28.6258 H         1 UNK         0.0000 
     48 C48        29.0729   32.7926   29.9725 C.ar      1 UNK         0.0000 
     49 C49        28.9478   33.9941   30.8524 C.2       1 UNK         0.0000 
     50 O50        29.8584   34.6722   31.1539 O.2       1 UNK         0.0000 
     51 C51        27.5049   34.3912   31.2884 C.3       1 UNK         0.0000 
     52 H52        27.5298   35.3291   31.8572 H         1 UNK         0.0000 
     53 H53        26.9035   34.5690   30.3883 H         1 UNK         0.0000 
     54 N54        26.7833   33.4199   32.0902 N.am      1 UNK         0.0000 
     55 H55        27.0116   33.3642   33.0756 H         1 UNK         0.0000 
     56 C56        26.0367   32.3305   31.5523 C.2       1 UNK         0.0000 
     57 O57        25.7873   32.2191   30.3317 O.2       1 UNK         0.0000 
     58 C58        25.7097   31.1832   32.5133 C.3       1 UNK         0.0000 
     59 H59        25.0062   31.5890   33.2503 H         1 UNK         0.0000 
     60 C60        26.9277   30.7139   33.3413 C.ar      1 UNK         0.0000 
     61 C61        26.9493   30.5057   34.7410 C.ar      1 UNK         0.0000 
     62 H62        26.1253   30.6163   35.4391 H         1 UNK         0.0000 
     63 C63        28.0665   29.8958   35.3718 C.ar      1 UNK         0.0000 
     64 H64        28.0452   29.6621   36.4317 H         1 UNK         0.0000 
     65 C65        29.2073   29.5811   34.5893 C.ar      1 UNK         0.0000 
     66 H66        30.1061   29.2287   35.0856 H         1 UNK         0.0000 
     67 C67        29.2610   29.9013   33.2760 C.ar      1 UNK         0.0000 
     68 H68        30.2319   29.8274   32.7947 H         1 UNK         0.0000 
     69 C69        28.1030   30.3488   32.6013 C.ar      1 UNK         0.0000 
     70 H70        28.1616   30.4692   31.5235 H         1 UNK         0.0000 
     71 C71        29.0262   35.2719   36.2449 C.3       1 UNK         0.0000 
     72 H72        29.0140   35.9460   35.3789 H         1 UNK         0.0000 
     73 H73        30.0010   34.9238   36.6065 H         1 UNK         0.0000 
     74 H74        28.5004   35.7820   37.0611 H         1 UNK         0.0000 
     75 S75        28.1052   33.6831   35.9034 S.3       1 UNK         0.0000 
     76 C76        29.0808   33.4197   34.3858 C.3       1 UNK         0.0000 
     77 H77        30.1194   33.1634   34.6274 H         1 UNK         0.0000 
     78 H78        29.1227   34.4108   33.9169 H         1 UNK         0.0000 
     79 H79        28.6182   32.5774   33.8564 H         1 UNK         0.0000 
     80 O80        26.7233   33.9634   35.2822 O.2       1 UNK         0.0000 
@<TRIPOS>BOND
     1    1    3 1    
     2    1    2 1    
     3    1    4 1    
     4    1    5 1    
     5    5   14 1    
     6    5   10 1    
     7    5    6 1    
     8    6    7 1    
     9    6    8 1    
    10    6    9 1    
    11   10   11 1    
    12   10   12 1    
    13   10   13 1    
    14   14   15 1    
    15   15   16 2    
    16   15   17 am   BACKBONE|DICT|INTERRES
    17   17   19 1    
    18   17   18 1    
    19   19   24 1    
    20   19   20 1    
    21   19   25 1    
    22   20   23 2    
    23   20   21 am   BACKBONE|DICT|INTERRES
    24   21   58 1    
    25   21   22 1    
    26   25   27 1    
    27   25   26 1    
    28   25   28 1    
    29   28   33 ar   
    30   28   29 ar   
    31   29   30 ar   
    32   29   32 1    
    33   30   37 ar   
    34   30   31 1    
    35   33   34 1    
    36   33   35 ar   
    37   35   36 1    
    38   35   37 ar   
    39   37   38 1    
    40   38   39 1    
    41   39   40 ar   
    42   39   44 ar   
    43   40   43 1    
    44   40   41 ar   
    45   41   42 1    
    46   41   48 ar   
    47   44   46 ar   
    48   44   45 1    
    49   46   48 ar   
    50   46   47 1    
    51   48   49 1    
    52   49   51 1    
    53   49   50 2    
    54   51   52 1    
    55   51   54 1    
    56   51   53 1    
    57   54   55 1    
    58   54   56 am   BACKBONE|DICT|INTERRES
    59   56   58 1    
    60   56   57 2    
    61   58   59 1    
    62   58   60 1    
    63   60   61 ar   
    64   60   69 ar   
    65   61   62 1    
    66   61   63 ar   
    67   63   64 1    
    68   63   65 ar   
    69   65   66 1    
    70   65   67 ar   
    71   67   68 1    
    72   67   69 ar   
    73   69   70 1    
    74   71   73 1    
    75   71   74 1    
    76   71   72 1    
    77   71   75 1    
    78   75   76 1    
    79   75   80 2    
    80   76   77 1    
    81   76   78 1    
    82   76   79 1    
@<TRIPOS>SUBSTRUCTURE
     1 UNK         1 GROUP             0       ****    0 ROOT    
@<TRIPOS>MOLECULE
Cpd2-5000
80   82    1
SMALL
USER_CHARGES


@<TRIPOS>ATOM
      1 C1         19.2234   30.0885   29.2915 C.3       1 UNK         0.0000 
      2 H2         18.2824   30.5322   28.9431 H         1 UNK         0.0000 
      3 H3         19.1925   29.1471   28.7278 H         1 UNK         0.0000 
      4 H4         19.2431   29.8298   30.3569 H         1 UNK         0.0000 
      5 C5         20.4517   31.0373   28.9745 C.3       1 UNK         0.0000 
      6 C6         20.3950   31.4695   27.4483 C.3       1 UNK         0.0000 
      7 H7         21.3631   31.7889   27.0434 H         1 UNK         0.0000 
      8 H8         20.0038   30.6700   26.8077 H         1 UNK         0.0000 
      9 H9         19.7077   32.3184   27.3546 H         1 UNK         0.0000 
     10 C10        20.5036   32.2823   29.8311 C.3       1 UNK         0.0000 
     11 H11        20.3038   32.1118   30.8957 H         1 UNK         0.0000 
     12 H12        21.4814   32.7494   29.6609 H         1 UNK         0.0000 
     13 H13        19.7505   33.0292   29.5529 H         1 UNK         0.0000 
     14 O14        21.6324   30.1666   29.1154 O.3       1 UNK         0.0000 
     15 C15        22.0323   29.5637   30.2570 C.2       1 UNK         0.0000 
     16 O16        21.5405   29.8370   31.3405 O.2       1 UNK         0.0000 
     17 N17        23.1906   28.8246   29.9760 N.am      1 UNK         0.0000 
     18 H18        23.4930   28.8371   29.0099 H         1 UNK         0.0000 
     19 C19        23.8246   28.0309   31.1326 C.3       1 UNK         0.0000 
     20 C20        24.6830   28.7644   32.1361 C.2       1 UNK         0.0000 
     21 N21        24.9080   30.0996   31.7963 N.am      1 UNK         0.0000 
     22 H22        24.4023   30.3750   30.9635 H         1 UNK         0.0000 
     23 O23        24.9403   28.3822   33.2284 O.2       1 UNK         0.0000 
     24 H24        22.9665   27.6625   31.7091 H         1 UNK         0.0000 
     25 C25        24.6188   26.8316   30.6067 C.3       1 UNK         0.0000 
     26 H26        24.0655   26.1711   29.9273 H         1 UNK         0.0000 
     27 H27        24.9351   26.2685   31.4934 H         1 UNK         0.0000 
     28 C28        25.8769   27.3018   29.8306 C.ar      1 UNK         0.0000 
     29 C29        25.8771   27.7753   28.5042 C.ar      1 UNK         0.0000 
     30 C30        26.9529   28.3741   27.8722 C.ar      1 UNK         0.0000 
     31 H31        26.8303   28.5507   26.8079 H         1 UNK         0.0000 
     32 H32        24.9693   27.8348   27.9107 H         1 UNK         0.0000 
     33 C33        27.0805   27.4090   30.5668 C.ar      1 UNK         0.0000 
     34 H34        27.1025   27.0318   31.5848 H         1 UNK         0.0000 
     35 C35        28.1912   28.1098   29.9940 C.ar      1 UNK         0.0000 
     36 H36        29.1215   28.3191   30.5144 H         1 UNK         0.0000 
     37 C37        28.1396   28.5578   28.6105 C.ar      1 UNK         0.0000 
     38 O38        29.1306   29.2786   27.9754 O.3       1 UNK         0.0000 
     39 C39        29.2942   30.5290   28.3939 C.ar      1 UNK         0.0000 
     40 C40        30.1932   30.7705   29.3931 C.ar      1 UNK         0.0000 
     41 C41        30.1143   31.8957   30.1425 C.ar      1 UNK         0.0000 
     42 H42        30.8334   32.0474   30.9421 H         1 UNK         0.0000 
     43 H43        31.0348   30.0959   29.5218 H         1 UNK         0.0000 
     44 C44        28.2498   31.3603   28.1726 C.ar      1 UNK         0.0000 
     45 H45        27.4863   31.0266   27.4764 H         1 UNK         0.0000 
     46 C46        28.1765   32.6126   28.8658 C.ar      1 UNK         0.0000 
     47 H47        27.3315   33.2561   28.6384 H         1 UNK         0.0000 
     48 C48        29.0583   32.7829   29.8952 C.ar      1 UNK         0.0000 
     49 C49        28.9511   33.9517   30.7971 C.2       1 UNK         0.0000 
     50 O50        29.9697   34.4942   31.2339 O.2       1 UNK         0.0000 
     51 C51        27.4497   34.3342   31.1994 C.3       1 UNK         0.0000 
     52 H52        27.5184   35.2877   31.7368 H         1 UNK         0.0000 
     53 H53        26.9083   34.4841   30.2574 H         1 UNK         0.0000 
     54 N54        26.8716   33.2578   31.9967 N.am      1 UNK         0.0000 
     55 H55        27.2647   33.1647   32.9258 H         1 UNK         0.0000 
     56 C56        26.1097   32.2741   31.4685 C.2       1 UNK         0.0000 
     57 O57        25.6016   32.3145   30.3777 O.2       1 UNK         0.0000 
     58 C58        25.8197   31.0976   32.3960 C.3       1 UNK         0.0000 
     59 H59        25.1806   31.4814   33.1998 H         1 UNK         0.0000 
     60 C60        27.1026   30.4853   33.0502 C.ar      1 UNK         0.0000 
     61 C61        27.1059   30.2769   34.4487 C.ar      1 UNK         0.0000 
     62 H62        26.2646   30.6552   35.0220 H         1 UNK         0.0000 
     63 C63        28.1483   29.5964   35.0598 C.ar      1 UNK         0.0000 
     64 H64        28.0994   29.4455   36.1339 H         1 UNK         0.0000 
     65 C65        29.3456   29.3288   34.3767 C.ar      1 UNK         0.0000 
     66 H66        30.2671   29.1029   34.9062 H         1 UNK         0.0000 
     67 C67        29.3470   29.6334   33.0062 C.ar      1 UNK         0.0000 
     68 H68        30.2438   29.4334   32.4269 H         1 UNK         0.0000 
     69 C69        28.2887   30.2011   32.2842 C.ar      1 UNK         0.0000 
     70 H70        28.3336   30.4030   31.2184 H         1 UNK         0.0000 
     71 C71        30.4924   35.4709   34.6270 C.3       1 UNK         0.0000 
     72 H72        31.3970   35.6529   35.2198 H         1 UNK         0.0000 
     73 H73        29.7783   36.2681   34.8705 H         1 UNK         0.0000 
     74 H74        30.6324   35.4353   33.5395 H         1 UNK         0.0000 
     75 S75        29.7813   33.9617   35.1688 S.3       1 UNK         0.0000 
     76 C76        30.9035   32.8908   34.2509 C.3       1 UNK         0.0000 
     77 H77        31.1757   33.2407   33.2473 H         1 UNK         0.0000 
     78 H78        30.4145   31.9441   33.9913 H         1 UNK         0.0000 
     79 H79        31.8407   32.8111   34.8153 H         1 UNK         0.0000 
     80 O80        28.5145   33.9943   34.4091 O.2       1 UNK         0.0000 
@<TRIPOS>BOND
     1    1    4 1    
     2    1    2 1    
     3    1    3 1    
     4    1    5 1    
     5    5   14 1    
     6    5   10 1    
     7    5    6 1    
     8    6    7 1    
     9    6    8 1    
    10    6    9 1    
    11   10   11 1    
    12   10   12 1    
    13   10   13 1    
    14   14   15 1    
    15   15   16 2    
    16   15   17 am   BACKBONE|DICT|INTERRES
    17   17   19 1    
    18   17   18 1    
    19   19   24 1    
    20   19   20 1    
    21   19   25 1    
    22   20   23 2    
    23   20   21 am   BACKBONE|DICT|INTERRES
    24   21   58 1    
    25   21   22 1    
    26   25   27 1    
    27   25   26 1    
    28   25   28 1    
    29   28   33 ar   
    30   28   29 ar   
    31   29   30 ar   
    32   29   32 1    
    33   30   37 ar   
    34   30   31 1    
    35   33   34 1    
    36   33   35 ar   
    37   35   36 1    
    38   35   37 ar   
    39   37   38 1    
    40   38   39 1    
    41   39   40 ar   
    42   39   44 ar   
    43   40   43 1    
    44   40   41 ar   
    45   41   42 1    
    46   41   48 ar   
    47   44   46 ar   
    48   44   45 1    
    49   46   48 ar   
    50   46   47 1    
    51   48   49 1    
    52   49   51 1    
    53   49   50 2    
    54   51   52 1    
    55   51   54 1    
    56   51   53 1    
    57   54   55 1    
    58   54   56 am   BACKBONE|DICT|INTERRES
    59   56   58 1    
    60   56   57 2    
    61   58   59 1    
    62   58   60 1    
    63   60   61 ar   
    64   60   69 ar   
    65   61   62 1    
    66   61   63 ar   
    67   63   64 1    
    68   63   65 ar   
    69   65   66 1    
    70   65   67 ar   
    71   67   68 1    
    72   67   69 ar   
    73   69   70 1    
    74   71   73 1    
    75   71   75 1    
    76   71   72 1    
    77   71   74 1    
    78   75   76 1    
    79   75   80 2    
    80   76   79 1    
    81   76   77 1    
    82   76   78 1    
@<TRIPOS>SUBSTRUCTURE
     1 UNK         1 GROUP             0       ****    0 ROOT    
