@<TRIPOS>MOLECULE
Cpd3-500-MEC-MRC
93   94    1
SMALL
USER_CHARGES


@<TRIPOS>ATOM
      1 C1          6.4859    2.0396   -0.7670 C.3       1 UNK         0.0000 
      2 H2          6.2623    2.2895    0.2738 H         1 UNK         0.0000 
      3 H3          7.1578    1.1759   -0.7854 H         1 UNK         0.0000 
      4 H4          6.9982    2.8865   -1.2308 H         1 UNK         0.0000 
      5 C5          5.2020    1.7362   -1.5307 C.3       1 UNK         0.0000 
      6 C6          5.5187    1.3188   -2.9635 C.3       1 UNK         0.0000 
      7 H7          6.1495    0.4241   -2.9632 H         1 UNK         0.0000 
      8 H8          4.6082    1.1163   -3.5282 H         1 UNK         0.0000 
      9 H9          6.0691    2.1251   -3.4571 H         1 UNK         0.0000 
     10 C10         4.2510    2.9281   -1.4656 C.3       1 UNK         0.0000 
     11 H11         3.9814    3.1369   -0.4256 H         1 UNK         0.0000 
     12 H12         4.7567    3.8087   -1.8724 H         1 UNK         0.0000 
     13 H13         3.3436    2.7458   -2.0420 H         1 UNK         0.0000 
     14 O14         4.6450    0.6033   -0.7902 O.3       1 UNK         0.0000 
     15 C15         3.4697    0.0519   -1.1478 C.2       1 UNK         0.0000 
     16 O16         2.7818    0.4053   -2.0987 O.2       1 UNK         0.0000 
     17 N17         3.1570   -0.9715   -0.3159 N.am      1 UNK         0.0000 
     18 H18         3.7155   -1.0892    0.5396 H         1 UNK         0.0000 
     19 C19         1.8619   -1.6168   -0.4222 C.3       1 UNK         0.0000 
     20 C20         0.8199   -0.6963    0.2400 C.2       1 UNK         0.0000 
     21 N21         0.1291    0.0840   -0.6222 N.am      1 UNK         0.0000 
     22 H22         0.4435    0.0938   -1.5882 H         1 UNK         0.0000 
     23 O23         0.6845   -0.6494    1.4624 O.2       1 UNK         0.0000 
     24 H24         1.6262   -1.7216   -1.4861 H         1 UNK         0.0000 
     25 C25         1.8891   -3.0059    0.2270 C.3       1 UNK         0.0000 
     26 H26         2.0969   -2.8997    1.2963 H         1 UNK         0.0000 
     27 H27         2.7045   -3.5747   -0.2304 H         1 UNK         0.0000 
     28 C28         0.5553   -3.6754    0.0023 C.ar      1 UNK         0.0000 
     29 C29        -0.4411   -3.6236    0.9825 C.ar      1 UNK         0.0000 
     30 C30        -1.7488   -3.9904    0.6805 C.ar      1 UNK         0.0000 
     31 H31        -2.5458   -3.9037    1.4120 H         1 UNK         0.0000 
     32 H32        -0.2018   -3.2356    1.9688 H         1 UNK         0.0000 
     33 C33         0.2398   -4.2180   -1.2487 C.ar      1 UNK         0.0000 
     34 H34         1.0131   -4.2996   -2.0087 H         1 UNK         0.0000 
     35 C35        -1.0683   -4.5844   -1.5661 C.ar      1 UNK         0.0000 
     36 H36        -1.3315   -4.9330   -2.5598 H         1 UNK         0.0000 
     37 C37        -2.0605   -4.3965   -0.6123 C.ar      1 UNK         0.0000 
     38 O38        -3.4089   -4.4831   -0.9695 O.3       1 UNK         0.0000 
     39 C39        -3.9454   -3.2124   -1.0976 C.ar      1 UNK         0.0000 
     40 C40        -3.3007   -2.2598   -1.8915 C.ar      1 UNK         0.0000 
     41 C41        -3.7543   -0.9513   -1.8915 C.ar      1 UNK         0.0000 
     42 H42        -3.2206   -0.2130   -2.4816 H         1 UNK         0.0000 
     43 H43        -2.4208   -2.5326   -2.4630 H         1 UNK         0.0000 
     44 C44        -5.1039   -2.8902   -0.3925 C.ar      1 UNK         0.0000 
     45 H45        -5.5977   -3.6513    0.2020 H         1 UNK         0.0000 
     46 C46        -5.5633   -1.5748   -0.4143 C.ar      1 UNK         0.0000 
     47 H47        -6.4388   -1.2949    0.1645 H         1 UNK         0.0000 
     48 C48        -4.8671   -0.5876   -1.1230 C.ar      1 UNK         0.0000 
     49 C49        -5.2600    0.8421   -0.9838 C.2       1 UNK         0.0000 
     50 O50        -6.3680    1.1699   -0.5952 O.2       1 UNK         0.0000 
     51 C51        -4.2023    1.9152   -1.2746 C.3       1 UNK         0.0000 
     52 H52        -3.9636    1.9278   -2.3427 H         1 UNK         0.0000 
     53 H53        -4.6385    2.8788   -1.0010 H         1 UNK         0.0000 
     54 N54        -2.9750    1.6804   -0.5386 N.am      1 UNK         0.0000 
     55 H55        -2.9999    1.7127    0.4897 H         1 UNK         0.0000 
     56 C56        -1.7896    1.4600   -1.1349 C.2       1 UNK         0.0000 
     57 O57        -1.6197    1.4204   -2.3562 O.2       1 UNK         0.0000 
     58 C58        -0.6067    1.2609   -0.1888 C.3       1 UNK         0.0000 
     59 H59        -0.9589    1.0961    0.8327 H         1 UNK         0.0000 
     60 C60         0.3109    2.5031   -0.2345 C.3       1 UNK         0.0000 
     61 H61         0.7321    2.5745   -1.2433 H         1 UNK         0.0000 
     62 H62         1.1380    2.3234    0.4618 H         1 UNK         0.0000 
     63 C63        -0.4292    3.7688    0.1188 C.ar      1 UNK         0.0000 
     64 C64        -0.7483    4.0547    1.4505 C.ar      1 UNK         0.0000 
     65 H65        -0.4279    3.3731    2.2346 H         1 UNK         0.0000 
     66 C66        -1.4813    5.1946    1.7763 C.ar      1 UNK         0.0000 
     67 H67        -1.7206    5.4040    2.8145 H         1 UNK         0.0000 
     68 C68        -1.9092    6.0633    0.7708 C.ar      1 UNK         0.0000 
     69 H69        -2.4800    6.9513    1.0240 H         1 UNK         0.0000 
     70 C70        -1.5983    5.7855   -0.5602 C.ar      1 UNK         0.0000 
     71 H71        -1.9261    6.4568   -1.3481 H         1 UNK         0.0000 
     72 C72        -0.8633    4.6439   -0.8820 C.ar      1 UNK         0.0000 
     73 H73        -0.6249    4.4262   -1.9204 H         1 UNK         0.0000 
     74 C74        -2.6675   -1.0358    2.0325 C.3       1 UNK         0.0000 
     75 H75        -2.9702   -1.9619    2.5256 H         1 UNK         0.0000 
     76 H76        -1.5773   -0.9877    1.9544 H         1 UNK         0.0000 
     77 H77        -3.1318   -0.9520    1.0437 H         1 UNK         0.0000 
     78 S78        -3.1935    0.3383    3.0775 S.3       1 UNK         0.0000 
     79 C79        -4.9771    0.1212    2.9123 C.3       1 UNK         0.0000 
     80 H80        -5.2581   -0.8530    3.3178 H         1 UNK         0.0000 
     81 H81        -5.2464    0.1979    1.8562 H         1 UNK         0.0000 
     82 H82        -5.4542    0.9174    3.4843 H         1 UNK         0.0000 
     83 O83        -2.8616    1.6157    2.2871 O.2       1 UNK         0.0000 
     84 C84         6.8326   -1.6576    0.2092 C.3       1 UNK         0.0000 
     85 H85         7.8910   -1.4444    0.0447 H         1 UNK         0.0000 
     86 H86         6.2373   -1.2770   -0.6223 H         1 UNK         0.0000 
     87 H87         6.6633   -2.7273    0.3516 H         1 UNK         0.0000 
     88 S88         6.2764   -0.7850    1.6875 S.3       1 UNK         0.0000 
     89 C89         7.2884   -1.6694    2.8902 C.3       1 UNK         0.0000 
     90 H90         7.0150   -1.2971    3.8777 H         1 UNK         0.0000 
     91 H91         8.3413   -1.4614    2.6905 H         1 UNK         0.0000 
     92 H92         7.0745   -2.7371    2.8102 H         1 UNK         0.0000 
     93 O93         4.8441   -1.2881    1.9387 O.2       1 UNK         0.0000 
@<TRIPOS>BOND
     1    1    2 1    
     2    1    3 1    
     3    1    4 1    
     4    1    5 1    
     5    5   10 1    
     6    5   14 1    
     7    5    6 1    
     8    6    7 1    
     9    6    8 1    
    10    6    9 1    
    11   10   11 1    
    12   10   12 1    
    13   10   13 1    
    14   14   15 1    
    15   15   17 am   BACKBONE|DICT|INTERRES
    16   15   16 2    
    17   17   18 1    
    18   17   19 1    
    19   19   24 1    
    20   19   25 1    
    21   19   20 1    
    22   20   23 2    
    23   20   21 am   BACKBONE|DICT|INTERRES
    24   21   58 1    
    25   21   22 1    
    26   25   26 1    
    27   25   27 1    
    28   25   28 1    
    29   28   29 ar   
    30   28   33 ar   
    31   29   32 1    
    32   29   30 ar   
    33   30   31 1    
    34   30   37 ar   
    35   33   34 1    
    36   33   35 ar   
    37   35   37 ar   
    38   35   36 1    
    39   37   38 1    
    40   38   39 1    
    41   39   44 ar   
    42   39   40 ar   
    43   40   41 ar   
    44   40   43 1    
    45   41   48 ar   
    46   41   42 1    
    47   44   45 1    
    48   44   46 ar   
    49   46   47 1    
    50   46   48 ar   
    51   48   49 1    
    52   49   50 2    
    53   49   51 1    
    54   51   53 1    
    55   51   54 1    
    56   51   52 1    
    57   54   55 1    
    58   54   56 am   BACKBONE|DICT|INTERRES
    59   56   58 1    
    60   56   57 2    
    61   58   59 1    
    62   58   60 1    
    63   60   63 1    
    64   60   62 1    
    65   60   61 1    
    66   63   64 ar   
    67   63   72 ar   
    68   64   66 ar   
    69   64   65 1    
    70   66   67 1    
    71   66   68 ar   
    72   68   69 1    
    73   68   70 ar   
    74   70   71 1    
    75   70   72 ar   
    76   72   73 1    
    77   74   75 1    
    78   74   78 1    
    79   74   76 1    
    80   74   77 1    
    81   78   79 1    
    82   78   83 2    
    83   79   80 1    
    84   79   82 1    
    85   79   81 1    
    86   84   87 1    
    87   84   88 1    
    88   84   85 1    
    89   84   86 1    
    90   88   93 2    
    91   88   89 1    
    92   89   90 1    
    93   89   91 1    
    94   89   92 1    
@<TRIPOS>SUBSTRUCTURE
     1 UNK         1 GROUP             0       ****    0 ROOT    
@<TRIPOS>MOLECULE
Cpd3-1000
83   85    1
SMALL
USER_CHARGES


@<TRIPOS>ATOM
      1 C1          6.4298    1.5137   -2.8399 C.3       1 UNK         0.0000 
      2 H2          6.5556    1.9566   -1.8476 H         1 UNK         0.0000 
      3 H3          6.8915    0.5225   -2.8444 H         1 UNK         0.0000 
      4 H4          6.9451    2.1425   -3.5701 H         1 UNK         0.0000 
      5 C5          4.9523    1.4155   -3.1984 C.3       1 UNK         0.0000 
      6 C6          4.7770    0.7642   -4.5656 C.3       1 UNK         0.0000 
      7 H7          5.3194    1.3525   -5.3113 H         1 UNK         0.0000 
      8 H8          5.1949   -0.2468   -4.5563 H         1 UNK         0.0000 
      9 H9          3.7261    0.7182   -4.8531 H         1 UNK         0.0000 
     10 C10         4.2877    2.7878   -3.1225 C.3       1 UNK         0.0000 
     11 H11         3.2311    2.7289   -3.3865 H         1 UNK         0.0000 
     12 H12         4.3879    3.2062   -2.1162 H         1 UNK         0.0000 
     13 H13         4.7852    3.4650   -3.8232 H         1 UNK         0.0000 
     14 O14         4.4312    0.5372   -2.1494 O.3       1 UNK         0.0000 
     15 C15         3.1518    0.1338   -2.1503 C.2       1 UNK         0.0000 
     16 O16         2.2695    0.5645   -2.8828 O.2       1 UNK         0.0000 
     17 N17         2.9568   -0.8265   -1.2154 N.am      1 UNK         0.0000 
     18 H18         3.7270   -1.0636   -0.6034 H         1 UNK         0.0000 
     19 C19         1.6504   -1.4167   -0.9919 C.3       1 UNK         0.0000 
     20 C20         0.8995   -0.6010    0.0803 C.2       1 UNK         0.0000 
     21 N21         0.0470    0.3243   -0.4168 N.am      1 UNK         0.0000 
     22 H22         0.0033    0.4009   -1.4371 H         1 UNK         0.0000 
     23 O23         1.1247   -0.7594    1.2776 O.2       1 UNK         0.0000 
     24 H24         1.1082   -1.3542   -1.9429 H         1 UNK         0.0000 
     25 C25         1.8102   -2.8851   -0.5736 C.3       1 UNK         0.0000 
     26 H26         2.3497   -2.9265    0.3776 H         1 UNK         0.0000 
     27 H27         2.4175   -3.3806   -1.3376 H         1 UNK         0.0000 
     28 C28         0.4605   -3.5487   -0.4545 C.ar      1 UNK         0.0000 
     29 C29        -0.1588   -3.7128    0.7885 C.ar      1 UNK         0.0000 
     30 C30        -1.4871   -4.1281    0.8770 C.ar      1 UNK         0.0000 
     31 H31        -1.9896   -4.2005    1.8358 H         1 UNK         0.0000 
     32 H32         0.3852   -3.4588    1.6930 H         1 UNK         0.0000 
     33 C33        -0.2425   -3.9124   -1.6089 C.ar      1 UNK         0.0000 
     34 H34         0.2388   -3.8305   -2.5803 H         1 UNK         0.0000 
     35 C35        -1.5718   -4.3173   -1.5361 C.ar      1 UNK         0.0000 
     36 H36        -2.1415   -4.5331   -2.4342 H         1 UNK         0.0000 
     37 C37        -2.1970   -4.3668   -0.2937 C.ar      1 UNK         0.0000 
     38 O38        -3.5909   -4.5082   -0.2435 O.3       1 UNK         0.0000 
     39 C39        -4.1311   -3.2811   -0.6172 C.ar      1 UNK         0.0000 
     40 C40        -4.6069   -3.1229   -1.9157 C.ar      1 UNK         0.0000 
     41 C41        -4.8681   -1.8385   -2.3828 C.ar      1 UNK         0.0000 
     42 H42        -5.1823   -1.6817   -3.4099 H         1 UNK         0.0000 
     43 H43        -4.6859   -3.9873   -2.5666 H         1 UNK         0.0000 
     44 C44        -4.0549   -2.2019    0.2643 C.ar      1 UNK         0.0000 
     45 H45        -3.7280   -2.3595    1.2864 H         1 UNK         0.0000 
     46 C46        -4.2971   -0.9234   -0.2153 C.ar      1 UNK         0.0000 
     47 H47        -4.1808   -0.0751    0.4535 H         1 UNK         0.0000 
     48 C48        -4.6542   -0.7305   -1.5560 C.ar      1 UNK         0.0000 
     49 C49        -4.7087    0.6331   -2.1488 C.2       1 UNK         0.0000 
     50 O50        -5.3371    0.8703   -3.1663 O.2       1 UNK         0.0000 
     51 C51        -3.8959    1.7473   -1.4866 C.3       1 UNK         0.0000 
     52 H52        -3.8725    2.5867   -2.1867 H         1 UNK         0.0000 
     53 H53        -4.4160    2.0734   -0.5802 H         1 UNK         0.0000 
     54 N54        -2.5514    1.3569   -1.1001 N.am      1 UNK         0.0000 
     55 H55        -1.9363    0.9812   -1.8287 H         1 UNK         0.0000 
     56 C56        -2.1039    1.5238    0.1599 C.2       1 UNK         0.0000 
     57 O57        -2.8187    1.9400    1.0751 O.2       1 UNK         0.0000 
     58 C58        -0.6203    1.2762    0.4559 C.3       1 UNK         0.0000 
     59 H59        -0.5855    0.8517    1.4613 H         1 UNK         0.0000 
     60 C60         0.0884    2.6536    0.4843 C.3       1 UNK         0.0000 
     61 H61        -0.5178    3.3208    1.1050 H         1 UNK         0.0000 
     62 H62         0.1015    3.0682   -0.5304 H         1 UNK         0.0000 
     63 C63         1.4902    2.5525    1.0297 C.ar      1 UNK         0.0000 
     64 C64         2.5720    2.3426    0.1704 C.ar      1 UNK         0.0000 
     65 H65         2.3999    2.3261   -0.9049 H         1 UNK         0.0000 
     66 C66         3.8589    2.1543    0.6748 C.ar      1 UNK         0.0000 
     67 H67         4.6831    1.9732   -0.0093 H         1 UNK         0.0000 
     68 C68         4.0809    2.1906    2.0503 C.ar      1 UNK         0.0000 
     69 H69         5.0813    2.0448    2.4453 H         1 UNK         0.0000 
     70 C70         3.0107    2.4177    2.9177 C.ar      1 UNK         0.0000 
     71 H71         3.1778    2.4588    3.9896 H         1 UNK         0.0000 
     72 C72         1.7261    2.5995    2.4092 C.ar      1 UNK         0.0000 
     73 H73         0.8928    2.7718    3.0866 H         1 UNK         0.0000 
     74 C74        -0.0259    2.6694   -3.7885 C.3       1 UNK         0.0000 
     75 H75         0.8298    2.6118   -3.1131 H         1 UNK         0.0000 
     76 H76        -0.9112    3.0469   -3.2712 H         1 UNK         0.0000 
     77 H77         0.2211    3.2889   -4.6525 H         1 UNK         0.0000 
     78 S78        -0.3466    0.9872   -4.3480 S.3       1 UNK         0.0000 
     79 C79        -1.8536    1.3077   -5.2841 C.3       1 UNK         0.0000 
     80 H80        -1.6057    1.9422   -6.1383 H         1 UNK         0.0000 
     81 H81        -2.5852    1.7876   -4.6292 H         1 UNK         0.0000 
     82 H82        -2.2271    0.3446   -5.6327 H         1 UNK         0.0000 
     83 O83        -0.8372    0.2405   -3.0881 O.2       1 UNK         0.0000 
@<TRIPOS>BOND
     1    1    5 1    
     2    1    2 1    
     3    1    3 1    
     4    1    4 1    
     5    5   14 1    
     6    5   10 1    
     7    5    6 1    
     8    6    9 1    
     9    6    7 1    
    10    6    8 1    
    11   10   11 1    
    12   10   12 1    
    13   10   13 1    
    14   14   15 1    
    15   15   17 am   BACKBONE|DICT|INTERRES
    16   15   16 2    
    17   17   18 1    
    18   17   19 1    
    19   19   24 1    
    20   19   20 1    
    21   19   25 1    
    22   20   21 am   BACKBONE|DICT|INTERRES
    23   20   23 2    
    24   21   58 1    
    25   21   22 1    
    26   25   28 1    
    27   25   26 1    
    28   25   27 1    
    29   28   29 ar   
    30   28   33 ar   
    31   29   30 ar   
    32   29   32 1    
    33   30   31 1    
    34   30   37 ar   
    35   33   35 ar   
    36   33   34 1    
    37   35   37 ar   
    38   35   36 1    
    39   37   38 1    
    40   38   39 1    
    41   39   44 ar   
    42   39   40 ar   
    43   40   41 ar   
    44   40   43 1    
    45   41   48 ar   
    46   41   42 1    
    47   44   45 1    
    48   44   46 ar   
    49   46   47 1    
    50   46   48 ar   
    51   48   49 1    
    52   49   51 1    
    53   49   50 2    
    54   51   52 1    
    55   51   53 1    
    56   51   54 1    
    57   54   56 am   BACKBONE|DICT|INTERRES
    58   54   55 1    
    59   56   57 2    
    60   56   58 1    
    61   58   59 1    
    62   58   60 1    
    63   60   61 1    
    64   60   62 1    
    65   60   63 1    
    66   63   72 ar   
    67   63   64 ar   
    68   64   65 1    
    69   64   66 ar   
    70   66   68 ar   
    71   66   67 1    
    72   68   70 ar   
    73   68   69 1    
    74   70   72 ar   
    75   70   71 1    
    76   72   73 1    
    77   74   75 1    
    78   74   76 1    
    79   74   77 1    
    80   74   78 1    
    81   78   83 2    
    82   78   79 1    
    83   79   81 1    
    84   79   80 1    
    85   79   82 1    
@<TRIPOS>SUBSTRUCTURE
     1 UNK         1 GROUP             0       ****    0 ROOT    
@<TRIPOS>MOLECULE
Cpd3-1500
83   85    1
SMALL
USER_CHARGES


@<TRIPOS>ATOM
      1 C1          7.3400    0.9632   -1.0408 C.3       1 UNK         0.0000 
      2 H2          7.6626    0.2113   -0.3154 H         1 UNK         0.0000 
      3 H3          8.2017    1.2637   -1.6422 H         1 UNK         0.0000 
      4 H4          6.9687    1.8388   -0.5001 H         1 UNK         0.0000 
      5 C5          6.2522    0.3989   -1.9473 C.3       1 UNK         0.0000 
      6 C6          6.7367   -0.8700   -2.6423 C.3       1 UNK         0.0000 
      7 H7          5.9762   -1.2706   -3.3143 H         1 UNK         0.0000 
      8 H8          7.6321   -0.6378   -3.2258 H         1 UNK         0.0000 
      9 H9          6.9986   -1.6294   -1.8992 H         1 UNK         0.0000 
     10 C10         5.7859    1.4580   -2.9418 C.3       1 UNK         0.0000 
     11 H11         6.6358    1.7535   -3.5644 H         1 UNK         0.0000 
     12 H12         4.9912    1.0788   -3.5843 H         1 UNK         0.0000 
     13 H13         5.4277    2.3461   -2.4139 H         1 UNK         0.0000 
     14 O14         5.1864    0.0668   -0.9995 O.3       1 UNK         0.0000 
     15 C15         4.0576   -0.5344   -1.4122 C.2       1 UNK         0.0000 
     16 O16         3.7140   -0.6797   -2.5759 O.2       1 UNK         0.0000 
     17 N17         3.3432   -0.9733   -0.3422 N.am      1 UNK         0.0000 
     18 H18         3.7017   -0.7852    0.5854 H         1 UNK         0.0000 
     19 C19         2.0295   -1.5676   -0.4801 C.3       1 UNK         0.0000 
     20 C20         1.0286   -0.7045    0.2957 C.2       1 UNK         0.0000 
     21 N21         0.0810   -0.0886   -0.4287 N.am      1 UNK         0.0000 
     22 H22         0.0913   -0.1331   -1.4421 H         1 UNK         0.0000 
     23 O23         1.1211   -0.6005    1.5207 O.2       1 UNK         0.0000 
     24 H24         1.7930   -1.5664   -1.5470 H         1 UNK         0.0000 
     25 C25         1.9981   -3.0158    0.0524 C.3       1 UNK         0.0000 
     26 H26         2.2941   -3.0024    1.1065 H         1 UNK         0.0000 
     27 H27         2.7392   -3.5936   -0.5075 H         1 UNK         0.0000 
     28 C28         0.6140   -3.5965   -0.1077 C.ar      1 UNK         0.0000 
     29 C29        -0.3530   -3.3988    0.8861 C.ar      1 UNK         0.0000 
     30 C30        -1.6864   -3.7192    0.6555 C.ar      1 UNK         0.0000 
     31 H31        -2.4507   -3.5120    1.3986 H         1 UNK         0.0000 
     32 H32        -0.0651   -2.9399    1.8277 H         1 UNK         0.0000 
     33 C33         0.2314   -4.2158   -1.3017 C.ar      1 UNK         0.0000 
     34 H34         0.9747   -4.3984   -2.0735 H         1 UNK         0.0000 
     35 C35        -1.1014   -4.5546   -1.5421 C.ar      1 UNK         0.0000 
     36 H36        -1.4112   -4.9895   -2.4872 H         1 UNK         0.0000 
     37 C37        -2.0537   -4.2520   -0.5772 C.ar      1 UNK         0.0000 
     38 O38        -3.4126   -4.3920   -0.8683 O.3       1 UNK         0.0000 
     39 C39        -3.9935   -3.1492   -1.0653 C.ar      1 UNK         0.0000 
     40 C40        -3.4426   -2.2705   -2.0002 C.ar      1 UNK         0.0000 
     41 C41        -3.9121   -0.9691   -2.0671 C.ar      1 UNK         0.0000 
     42 H42        -3.4384   -0.2741   -2.7518 H         1 UNK         0.0000 
     43 H43        -2.6140   -2.5900   -2.6228 H         1 UNK         0.0000 
     44 C44        -5.0857   -2.7773   -0.2851 C.ar      1 UNK         0.0000 
     45 H45        -5.5034   -3.4855    0.4224 H         1 UNK         0.0000 
     46 C46        -5.5663   -1.4720   -0.3764 C.ar      1 UNK         0.0000 
     47 H47        -6.3792   -1.1436    0.2642 H         1 UNK         0.0000 
     48 C48        -4.9519   -0.5492   -1.2293 C.ar      1 UNK         0.0000 
     49 C49        -5.3279    0.8905   -1.1538 C.2       1 UNK         0.0000 
     50 O50        -6.4495    1.2576   -0.8538 O.2       1 UNK         0.0000 
     51 C51        -4.2043    1.9143   -1.3701 C.3       1 UNK         0.0000 
     52 H52        -3.8584    1.8922   -2.4077 H         1 UNK         0.0000 
     53 H53        -4.6139    2.9037   -1.1559 H         1 UNK         0.0000 
     54 N54        -3.0795    1.6203   -0.5040 N.am      1 UNK         0.0000 
     55 H55        -3.2437    1.5851    0.5117 H         1 UNK         0.0000 
     56 C56        -1.8922    1.1701   -0.9504 C.2       1 UNK         0.0000 
     57 O57        -1.5845    1.0691   -2.1396 O.2       1 UNK         0.0000 
     58 C58        -0.9107    0.7885    0.1621 C.3       1 UNK         0.0000 
     59 H59        -1.4584    0.2463    0.9412 H         1 UNK         0.0000 
     60 C60        -0.2922    2.0515    0.8247 C.3       1 UNK         0.0000 
     61 H61         0.1534    1.7346    1.7701 H         1 UNK         0.0000 
     62 H62        -1.1103    2.7430    1.0522 H         1 UNK         0.0000 
     63 C63         0.7541    2.7094   -0.0374 C.ar      1 UNK         0.0000 
     64 C64         2.1030    2.3755    0.1288 C.ar      1 UNK         0.0000 
     65 H65         2.3827    1.6751    0.9126 H         1 UNK         0.0000 
     66 C66         3.0829    2.9269   -0.6946 C.ar      1 UNK         0.0000 
     67 H67         4.1231    2.6512   -0.5454 H         1 UNK         0.0000 
     68 C68         2.7245    3.8260   -1.6999 C.ar      1 UNK         0.0000 
     69 H69         3.4842    4.2588   -2.3440 H         1 UNK         0.0000 
     70 C70         1.3833    4.1732   -1.8689 C.ar      1 UNK         0.0000 
     71 H71         1.0978    4.8782   -2.6436 H         1 UNK         0.0000 
     72 C72         0.4059    3.6177   -1.0424 C.ar      1 UNK         0.0000 
     73 H73        -0.6381    3.8918   -1.1787 H         1 UNK         0.0000 
     74 C74        -2.2514    2.3164    4.4594 C.3       1 UNK         0.0000 
     75 H75        -2.0610    1.2900    4.7800 H         1 UNK         0.0000 
     76 H76        -2.4959    2.9575    5.3084 H         1 UNK         0.0000 
     77 H77        -1.3893    2.7178    3.9262 H         1 UNK         0.0000 
     78 S78        -3.6357    2.3109    3.3052 S.3       1 UNK         0.0000 
     79 C79        -4.8571    1.5248    4.3722 C.3       1 UNK         0.0000 
     80 H80        -5.7568    1.3776    3.7744 H         1 UNK         0.0000 
     81 H81        -5.0715    2.1844    5.2152 H         1 UNK         0.0000 
     82 H82        -4.4587    0.5663    4.7107 H         1 UNK         0.0000 
     83 O83        -3.2746    1.2387    2.2614 O.2       1 UNK         0.0000 
@<TRIPOS>BOND
     1    1    4 1    
     2    1    2 1    
     3    1    3 1    
     4    1    5 1    
     5    5   14 1    
     6    5    6 1    
     7    5   10 1    
     8    6    9 1    
     9    6    7 1    
    10    6    8 1    
    11   10   13 1    
    12   10   11 1    
    13   10   12 1    
    14   14   15 1    
    15   15   17 am   BACKBONE|DICT|INTERRES
    16   15   16 2    
    17   17   18 1    
    18   17   19 1    
    19   19   24 1    
    20   19   20 1    
    21   19   25 1    
    22   20   23 2    
    23   20   21 am   BACKBONE|DICT|INTERRES
    24   21   58 1    
    25   21   22 1    
    26   25   26 1    
    27   25   27 1    
    28   25   28 1    
    29   28   29 ar   
    30   28   33 ar   
    31   29   32 1    
    32   29   30 ar   
    33   30   31 1    
    34   30   37 ar   
    35   33   34 1    
    36   33   35 ar   
    37   35   37 ar   
    38   35   36 1    
    39   37   38 1    
    40   38   39 1    
    41   39   44 ar   
    42   39   40 ar   
    43   40   41 ar   
    44   40   43 1    
    45   41   48 ar   
    46   41   42 1    
    47   44   45 1    
    48   44   46 ar   
    49   46   47 1    
    50   46   48 ar   
    51   48   49 1    
    52   49   50 2    
    53   49   51 1    
    54   51   54 1    
    55   51   52 1    
    56   51   53 1    
    57   54   55 1    
    58   54   56 am   BACKBONE|DICT|INTERRES
    59   56   58 1    
    60   56   57 2    
    61   58   60 1    
    62   58   59 1    
    63   60   61 1    
    64   60   62 1    
    65   60   63 1    
    66   63   64 ar   
    67   63   72 ar   
    68   64   65 1    
    69   64   66 ar   
    70   66   67 1    
    71   66   68 ar   
    72   68   69 1    
    73   68   70 ar   
    74   70   72 ar   
    75   70   71 1    
    76   72   73 1    
    77   74   76 1    
    78   74   75 1    
    79   74   77 1    
    80   74   78 1    
    81   78   79 1    
    82   78   83 2    
    83   79   81 1    
    84   79   82 1    
    85   79   80 1    
@<TRIPOS>SUBSTRUCTURE
     1 UNK         1 GROUP             0       ****    0 ROOT    
@<TRIPOS>MOLECULE
Cpd3-2000
83   85    1
SMALL
USER_CHARGES


@<TRIPOS>ATOM
      1 C1          6.7402    1.1977   -2.4797 C.3       1 UNK         0.0000 
      2 H2          7.2912    0.3044   -2.1733 H         1 UNK         0.0000 
      3 H3          7.3234    1.7266   -3.2379 H         1 UNK         0.0000 
      4 H4          6.6219    1.8540   -1.6128 H         1 UNK         0.0000 
      5 C5          5.3814    0.8146   -3.0544 C.3       1 UNK         0.0000 
      6 C6          5.5523   -0.1552   -4.2201 C.3       1 UNK         0.0000 
      7 H7          6.2083    0.3031   -4.9657 H         1 UNK         0.0000 
      8 H8          6.0222   -1.0805   -3.8731 H         1 UNK         0.0000 
      9 H9          4.5970   -0.3914   -4.6896 H         1 UNK         0.0000 
     10 C10         4.5920    2.0604   -3.4440 C.3       1 UNK         0.0000 
     11 H11         5.1359    2.5952   -4.2281 H         1 UNK         0.0000 
     12 H12         3.6008    1.8016   -3.8207 H         1 UNK         0.0000 
     13 H13         4.4879    2.7300   -2.5844 H         1 UNK         0.0000 
     14 O14         4.7313    0.1453   -1.9226 O.3       1 UNK         0.0000 
     15 C15         3.5099   -0.3914   -2.0471 C.2       1 UNK         0.0000 
     16 O16         2.8279   -0.3751   -3.0641 O.2       1 UNK         0.0000 
     17 N17         3.1213   -0.9746   -0.8840 N.am      1 UNK         0.0000 
     18 H18         3.7006   -0.8371   -0.0654 H         1 UNK         0.0000 
     19 C19         1.8036   -1.5633   -0.7350 C.3       1 UNK         0.0000 
     20 C20         0.9182   -0.6162    0.0965 C.2       1 UNK         0.0000 
     21 N21         0.0418    0.1386   -0.6103 N.am      1 UNK         0.0000 
     22 H22         0.1120    0.1476   -1.6322 H         1 UNK         0.0000 
     23 O23         1.0459   -0.5648    1.3178 O.2       1 UNK         0.0000 
     24 H24         1.3928   -1.6579   -1.7425 H         1 UNK         0.0000 
     25 C25         1.8862   -2.9559   -0.0885 C.3       1 UNK         0.0000 
     26 H26         2.2318   -2.8489    0.9444 H         1 UNK         0.0000 
     27 H27         2.6264   -3.5372   -0.6457 H         1 UNK         0.0000 
     28 C28         0.5303   -3.6129   -0.1453 C.ar      1 UNK         0.0000 
     29 C29        -0.4032   -3.4130    0.8776 C.ar      1 UNK         0.0000 
     30 C30        -1.7303   -3.7962    0.7108 C.ar      1 UNK         0.0000 
     31 H31        -2.4752   -3.5807    1.4707 H         1 UNK         0.0000 
     32 H32        -0.0998   -2.8977    1.7843 H         1 UNK         0.0000 
     33 C33         0.1329   -4.3058   -1.2939 C.ar      1 UNK         0.0000 
     34 H34         0.8562   -4.4938   -2.0842 H         1 UNK         0.0000 
     35 C35        -1.1925   -4.7018   -1.4716 C.ar      1 UNK         0.0000 
     36 H36        -1.5184   -5.1865   -2.3866 H         1 UNK         0.0000 
     37 C37        -2.1216   -4.3852   -0.4878 C.ar      1 UNK         0.0000 
     38 O38        -3.4882   -4.5299   -0.7515 O.3       1 UNK         0.0000 
     39 C39        -4.0077   -3.2696   -1.0267 C.ar      1 UNK         0.0000 
     40 C40        -3.5568   -2.5823   -2.1549 C.ar      1 UNK         0.0000 
     41 C41        -3.8766   -1.2418   -2.3033 C.ar      1 UNK         0.0000 
     42 H42        -3.4824   -0.6908   -3.1521 H         1 UNK         0.0000 
     43 H43        -2.9117   -3.0848   -2.8675 H         1 UNK         0.0000 
     44 C44        -4.8849   -2.6788   -0.1229 C.ar      1 UNK         0.0000 
     45 H45        -5.2319   -3.2446    0.7352 H         1 UNK         0.0000 
     46 C46        -5.2318   -1.3411   -0.3013 C.ar      1 UNK         0.0000 
     47 H47        -5.8743   -0.8403    0.4164 H         1 UNK         0.0000 
     48 C48        -4.6891   -0.6050   -1.3579 C.ar      1 UNK         0.0000 
     49 C49        -4.9352    0.8613   -1.4247 C.2       1 UNK         0.0000 
     50 O50        -5.9709    1.3595   -1.0234 O.2       1 UNK         0.0000 
     51 C51        -3.8439    1.7514   -2.0254 C.3       1 UNK         0.0000 
     52 H52        -3.9130    1.7032   -3.1170 H         1 UNK         0.0000 
     53 H53        -4.0789    2.7739   -1.7140 H         1 UNK         0.0000 
     54 N54        -2.4931    1.3886   -1.6420 N.am      1 UNK         0.0000 
     55 H55        -1.7783    1.2481   -2.3627 H         1 UNK         0.0000 
     56 C56        -2.1609    1.3455   -0.3379 C.2       1 UNK         0.0000 
     57 O57        -3.0018    1.4972    0.5516 O.2       1 UNK         0.0000 
     58 C58        -0.6745    1.2386    0.0214 C.3       1 UNK         0.0000 
     59 H59        -0.6449    1.0598    1.0973 H         1 UNK         0.0000 
     60 C60        -0.0026    2.5981   -0.2941 C.3       1 UNK         0.0000 
     61 H61        -0.6595    3.3969    0.0677 H         1 UNK         0.0000 
     62 H62         0.0806    2.6988   -1.3825 H         1 UNK         0.0000 
     63 C63         1.3509    2.7048    0.3595 C.ar      1 UNK         0.0000 
     64 C64         1.4604    3.1607    1.6784 C.ar      1 UNK         0.0000 
     65 H65         0.5667    3.4873    2.2054 H         1 UNK         0.0000 
     66 C66         2.6956    3.1924    2.3217 C.ar      1 UNK         0.0000 
     67 H67         2.7638    3.5497    3.3446 H         1 UNK         0.0000 
     68 C68         3.8429    2.7635    1.6514 C.ar      1 UNK         0.0000 
     69 H69         4.8064    2.7823    2.1509 H         1 UNK         0.0000 
     70 C70         3.7462    2.3158    0.3345 C.ar      1 UNK         0.0000 
     71 H71         4.6315    1.9738   -0.1934 H         1 UNK         0.0000 
     72 C72         2.5072    2.2923   -0.3081 C.ar      1 UNK         0.0000 
     73 H73         2.4303    1.9492   -1.3393 H         1 UNK         0.0000 
     74 C74         0.0538   -1.6744   -4.2516 C.3       1 UNK         0.0000 
     75 H75        -0.0424   -2.2985   -5.1425 H         1 UNK         0.0000 
     76 H76        -0.6290   -2.0272   -3.4746 H         1 UNK         0.0000 
     77 H77         1.0843   -1.6461   -3.8908 H         1 UNK         0.0000 
     78 S78        -0.4506    0.0070   -4.6674 S.3       1 UNK         0.0000 
     79 C79         0.9888    0.4724   -5.6453 C.3       1 UNK         0.0000 
     80 H80         1.0199   -0.1559   -6.5379 H         1 UNK         0.0000 
     81 H81         1.8758    0.3344   -5.0230 H         1 UNK         0.0000 
     82 H82         0.8599    1.5175   -5.9281 H         1 UNK         0.0000 
     83 O83        -0.3091    0.8110   -3.3556 O.2       1 UNK         0.0000 
@<TRIPOS>BOND
     1    1    4 1    
     2    1    2 1    
     3    1    3 1    
     4    1    5 1    
     5    5   14 1    
     6    5    6 1    
     7    5   10 1    
     8    6    8 1    
     9    6    7 1    
    10    6    9 1    
    11   10   13 1    
    12   10   11 1    
    13   10   12 1    
    14   14   15 1    
    15   15   17 am   BACKBONE|DICT|INTERRES
    16   15   16 2    
    17   17   19 1    
    18   17   18 1    
    19   19   24 1    
    20   19   20 1    
    21   19   25 1    
    22   20   23 2    
    23   20   21 am   BACKBONE|DICT|INTERRES
    24   21   22 1    
    25   21   58 1    
    26   25   26 1    
    27   25   27 1    
    28   25   28 1    
    29   28   29 ar   
    30   28   33 ar   
    31   29   32 1    
    32   29   30 ar   
    33   30   31 1    
    34   30   37 ar   
    35   33   34 1    
    36   33   35 ar   
    37   35   37 ar   
    38   35   36 1    
    39   37   38 1    
    40   38   39 1    
    41   39   44 ar   
    42   39   40 ar   
    43   40   41 ar   
    44   40   43 1    
    45   41   48 ar   
    46   41   42 1    
    47   44   45 1    
    48   44   46 ar   
    49   46   47 1    
    50   46   48 ar   
    51   48   49 1    
    52   49   50 2    
    53   49   51 1    
    54   51   54 1    
    55   51   52 1    
    56   51   53 1    
    57   54   56 am   BACKBONE|DICT|INTERRES
    58   54   55 1    
    59   56   57 2    
    60   56   58 1    
    61   58   59 1    
    62   58   60 1    
    63   60   63 1    
    64   60   61 1    
    65   60   62 1    
    66   63   64 ar   
    67   63   72 ar   
    68   64   65 1    
    69   64   66 ar   
    70   66   67 1    
    71   66   68 ar   
    72   68   69 1    
    73   68   70 ar   
    74   70   71 1    
    75   70   72 ar   
    76   72   73 1    
    77   74   77 1    
    78   74   76 1    
    79   74   75 1    
    80   74   78 1    
    81   78   83 2    
    82   78   79 1    
    83   79   81 1    
    84   79   80 1    
    85   79   82 1    
@<TRIPOS>SUBSTRUCTURE
     1 UNK         1 GROUP             0       ****    0 ROOT    
@<TRIPOS>MOLECULE
Cpd3-2500
93   94    1
SMALL
USER_CHARGES


@<TRIPOS>ATOM
      1 C1          6.9427    0.3095   -3.0938 C.3       1 UNK         0.0000 
      2 H2          6.6521    1.3606   -3.0185 H         1 UNK         0.0000 
      3 H3          7.3430   -0.0178   -2.1302 H         1 UNK         0.0000 
      4 H4          7.7296    0.2259   -3.8479 H         1 UNK         0.0000 
      5 C5          5.7547   -0.5555   -3.4997 C.3       1 UNK         0.0000 
      6 C6          6.1913   -2.0140   -3.6153 C.3       1 UNK         0.0000 
      7 H7          5.3757   -2.6523   -3.9534 H         1 UNK         0.0000 
      8 H8          7.0137   -2.0805   -4.3336 H         1 UNK         0.0000 
      9 H9          6.5536   -2.3735   -2.6472 H         1 UNK         0.0000 
     10 C10         5.1245   -0.0273   -4.7852 C.3       1 UNK         0.0000 
     11 H11         5.8804   -0.0093   -5.5758 H         1 UNK         0.0000 
     12 H12         4.2928   -0.6556   -5.1070 H         1 UNK         0.0000 
     13 H13         4.7644    0.9957   -4.6325 H         1 UNK         0.0000 
     14 O14         4.8209   -0.3851   -2.3848 O.3       1 UNK         0.0000 
     15 C15         3.6551   -1.0649   -2.3648 C.2       1 UNK         0.0000 
     16 O16         3.2679   -1.8240   -3.2468 O.2       1 UNK         0.0000 
     17 N17         2.9540   -0.7872   -1.2446 N.am      1 UNK         0.0000 
     18 H18         3.3665   -0.1642   -0.5384 H         1 UNK         0.0000 
     19 C19         1.6876   -1.4555   -1.0047 C.3       1 UNK         0.0000 
     20 C20         0.9505   -0.6392    0.0602 C.2       1 UNK         0.0000 
     21 N21        -0.0814    0.1120   -0.3801 N.am      1 UNK         0.0000 
     22 H22        -0.3042    0.0825   -1.3783 H         1 UNK         0.0000 
     23 O23         1.3178   -0.6635    1.2339 O.2       1 UNK         0.0000 
     24 H24         1.1097   -1.4513   -1.9373 H         1 UNK         0.0000 
     25 C25         1.8655   -2.9138   -0.5350 C.3       1 UNK         0.0000 
     26 H26         2.3885   -2.9074    0.4254 H         1 UNK         0.0000 
     27 H27         2.4891   -3.4245   -1.2747 H         1 UNK         0.0000 
     28 C28         0.5123   -3.5661   -0.4184 C.ar      1 UNK         0.0000 
     29 C29        -0.1353   -3.6864    0.8142 C.ar      1 UNK         0.0000 
     30 C30        -1.4769   -4.0661    0.8859 C.ar      1 UNK         0.0000 
     31 H31        -1.9986   -4.1069    1.8368 H         1 UNK         0.0000 
     32 H32         0.3978   -3.4279    1.7249 H         1 UNK         0.0000 
     33 C33        -0.1829   -3.9248   -1.5802 C.ar      1 UNK         0.0000 
     34 H34         0.3169   -3.8642   -2.5443 H         1 UNK         0.0000 
     35 C35        -1.5203   -4.3010   -1.5246 C.ar      1 UNK         0.0000 
     36 H36        -2.0768   -4.5224   -2.4296 H         1 UNK         0.0000 
     37 C37        -2.1687   -4.3168   -0.2922 C.ar      1 UNK         0.0000 
     38 O38        -3.5629   -4.4594   -0.2623 O.3       1 UNK         0.0000 
     39 C39        -4.1158   -3.2421   -0.6476 C.ar      1 UNK         0.0000 
     40 C40        -4.5737   -3.0810   -1.9520 C.ar      1 UNK         0.0000 
     41 C41        -4.8685   -1.7976   -2.4052 C.ar      1 UNK         0.0000 
     42 H42        -5.1556   -1.6331   -3.4391 H         1 UNK         0.0000 
     43 H43        -4.6189   -3.9381   -2.6155 H         1 UNK         0.0000 
     44 C44        -4.0848   -2.1728    0.2487 C.ar      1 UNK         0.0000 
     45 H45        -3.7681   -2.3384    1.2729 H         1 UNK         0.0000 
     46 C46        -4.3623   -0.8957   -0.2151 C.ar      1 UNK         0.0000 
     47 H47        -4.2805   -0.0512    0.4642 H         1 UNK         0.0000 
     48 C48        -4.7034   -0.6967   -1.5596 C.ar      1 UNK         0.0000 
     49 C49        -4.7658    0.6694   -2.1460 C.2       1 UNK         0.0000 
     50 O50        -5.4471    0.9276   -3.1222 O.2       1 UNK         0.0000 
     51 C51        -3.8939    1.7613   -1.5234 C.3       1 UNK         0.0000 
     52 H52        -3.8172    2.5698   -2.2564 H         1 UNK         0.0000 
     53 H53        -4.3992    2.1568   -0.6361 H         1 UNK         0.0000 
     54 N54        -2.5813    1.2984   -1.1129 N.am      1 UNK         0.0000 
     55 H55        -2.0234    0.7893   -1.8012 H         1 UNK         0.0000 
     56 C56        -2.1451    1.4754    0.1508 C.2       1 UNK         0.0000 
     57 O57        -2.8243    2.0357    1.0140 O.2       1 UNK         0.0000 
     58 C58        -0.7433    1.0157    0.5450 C.3       1 UNK         0.0000 
     59 H59        -0.8735    0.4755    1.4879 H         1 UNK         0.0000 
     60 C60         0.1278    2.2608    0.8490 C.3       1 UNK         0.0000 
     61 H61         1.0815    1.8931    1.2379 H         1 UNK         0.0000 
     62 H62        -0.3711    2.8242    1.6425 H         1 UNK         0.0000 
     63 C63         0.3621    3.1431   -0.3516 C.ar      1 UNK         0.0000 
     64 C64         1.5070    2.9836   -1.1419 C.ar      1 UNK         0.0000 
     65 H65         2.2349    2.2180   -0.8692 H         1 UNK         0.0000 
     66 C66         1.7336    3.8177   -2.2396 C.ar      1 UNK         0.0000 
     67 H67         2.6259    3.6869   -2.8463 H         1 UNK         0.0000 
     68 C68         0.8198    4.8205   -2.5613 C.ar      1 UNK         0.0000 
     69 H69         0.9997    5.4703   -3.4119 H         1 UNK         0.0000 
     70 C70        -0.3308    4.9795   -1.7867 C.ar      1 UNK         0.0000 
     71 H71        -1.0486    5.7566   -2.0308 H         1 UNK         0.0000 
     72 C72        -0.5567    4.1452   -0.6925 C.ar      1 UNK         0.0000 
     73 H73        -1.4482    4.2787   -0.0833 H         1 UNK         0.0000 
     74 C74         1.2721    0.6493   -4.1011 C.3       1 UNK         0.0000 
     75 H75         1.6899   -0.3570   -4.1774 H         1 UNK         0.0000 
     76 H76         1.4636    1.0739   -3.1104 H         1 UNK         0.0000 
     77 H77         1.6822    1.2897   -4.8857 H         1 UNK         0.0000 
     78 S78        -0.5088    0.5120   -4.3324 S.3       1 UNK         0.0000 
     79 C79        -0.9526    2.2425   -4.0948 C.3       1 UNK         0.0000 
     80 H80        -0.4558    2.8496   -4.8541 H         1 UNK         0.0000 
     81 H81        -0.6431    2.5453   -3.0902 H         1 UNK         0.0000 
     82 H82        -2.0352    2.3169   -4.2099 H         1 UNK         0.0000 
     83 O83        -1.0164   -0.1884   -3.0488 O.2       1 UNK         0.0000 
     84 C84         5.9280    2.8781    1.3004 C.3       1 UNK         0.0000 
     85 H85         6.1244    2.3137    2.2124 H         1 UNK         0.0000 
     86 H86         5.1031    3.5771    1.4522 H         1 UNK         0.0000 
     87 H87         6.8333    3.3975    0.9803 H         1 UNK         0.0000 
     88 S88         5.4526    1.6900    0.0298 S.3       1 UNK         0.0000 
     89 C89         5.0928    2.8688   -1.2871 C.3       1 UNK         0.0000 
     90 H90         4.3837    3.6101   -0.9113 H         1 UNK         0.0000 
     91 H91         4.6531    2.2901   -2.1033 H         1 UNK         0.0000 
     92 H92         6.0201    3.3435   -1.6153 H         1 UNK         0.0000 
     93 O93         4.0756    1.1700    0.4761 O.2       1 UNK         0.0000 
@<TRIPOS>BOND
     1    1    5 1    
     2    1    4 1    
     3    1    2 1    
     4    1    3 1    
     5    5    6 1    
     6    5   10 1    
     7    5   14 1    
     8    6    7 1    
     9    6    8 1    
    10    6    9 1    
    11   10   12 1    
    12   10   11 1    
    13   10   13 1    
    14   14   15 1    
    15   15   16 2    
    16   15   17 am   BACKBONE|DICT|INTERRES
    17   17   18 1    
    18   17   19 1    
    19   19   24 1    
    20   19   20 1    
    21   19   25 1    
    22   20   21 am   BACKBONE|DICT|INTERRES
    23   20   23 2    
    24   21   22 1    
    25   21   58 1    
    26   25   28 1    
    27   25   27 1    
    28   25   26 1    
    29   28   33 ar   
    30   28   29 ar   
    31   29   30 ar   
    32   29   32 1    
    33   30   37 ar   
    34   30   31 1    
    35   33   35 ar   
    36   33   34 1    
    37   35   36 1    
    38   35   37 ar   
    39   37   38 1    
    40   38   39 1    
    41   39   40 ar   
    42   39   44 ar   
    43   40   41 ar   
    44   40   43 1    
    45   41   42 1    
    46   41   48 ar   
    47   44   46 ar   
    48   44   45 1    
    49   46   48 ar   
    50   46   47 1    
    51   48   49 1    
    52   49   50 2    
    53   49   51 1    
    54   51   52 1    
    55   51   53 1    
    56   51   54 1    
    57   54   55 1    
    58   54   56 am   BACKBONE|DICT|INTERRES
    59   56   57 2    
    60   56   58 1    
    61   58   59 1    
    62   58   60 1    
    63   60   63 1    
    64   60   61 1    
    65   60   62 1    
    66   63   72 ar   
    67   63   64 ar   
    68   64   66 ar   
    69   64   65 1    
    70   66   68 ar   
    71   66   67 1    
    72   68   69 1    
    73   68   70 ar   
    74   70   71 1    
    75   70   72 ar   
    76   72   73 1    
    77   74   75 1    
    78   74   78 1    
    79   74   77 1    
    80   74   76 1    
    81   78   79 1    
    82   78   83 2    
    83   79   82 1    
    84   79   80 1    
    85   79   81 1    
    86   84   87 1    
    87   84   88 1    
    88   84   85 1    
    89   84   86 1    
    90   88   89 1    
    91   88   93 2    
    92   89   92 1    
    93   89   91 1    
    94   89   90 1    
@<TRIPOS>SUBSTRUCTURE
     1 UNK         1 GROUP             0       ****    0 ROOT    
@<TRIPOS>MOLECULE
Cpd3-3000
93   94    1
SMALL
USER_CHARGES


@<TRIPOS>ATOM
      1 C1          6.1804    1.5256   -3.3191 C.3       1 UNK         0.0000 
      2 H2          6.7476    1.1530   -2.4608 H         1 UNK         0.0000 
      3 H3          6.8710    1.6896   -4.1502 H         1 UNK         0.0000 
      4 H4          5.7285    2.4872   -3.0580 H         1 UNK         0.0000 
      5 C5          5.1121    0.5194   -3.7317 C.3       1 UNK         0.0000 
      6 C6          5.7578   -0.8023   -4.1367 C.3       1 UNK         0.0000 
      7 H7          5.0055   -1.5372   -4.4263 H         1 UNK         0.0000 
      8 H8          6.4244   -0.6310   -4.9868 H         1 UNK         0.0000 
      9 H9          6.3520   -1.1995   -3.3080 H         1 UNK         0.0000 
     10 C10         4.2417    1.1058   -4.8421 C.3       1 UNK         0.0000 
     11 H11         3.5273    0.3759   -5.2232 H         1 UNK         0.0000 
     12 H12         3.6936    1.9786   -4.4724 H         1 UNK         0.0000 
     13 H13         4.8894    1.4335   -5.6608 H         1 UNK         0.0000 
     14 O14         4.3400    0.3319   -2.5003 O.3       1 UNK         0.0000 
     15 C15         3.3035   -0.5321   -2.4811 C.2       1 UNK         0.0000 
     16 O16         2.8140   -1.0533   -3.4794 O.2       1 UNK         0.0000 
     17 N17         2.8627   -0.7366   -1.2230 N.am      1 UNK         0.0000 
     18 H18         3.3585   -0.2823   -0.4429 H         1 UNK         0.0000 
     19 C19         1.6339   -1.4714   -0.9846 C.3       1 UNK         0.0000 
     20 C20         0.8623   -0.6920    0.0860 C.2       1 UNK         0.0000 
     21 N21        -0.1252    0.1049   -0.3771 N.am      1 UNK         0.0000 
     22 H22        -0.2928    0.1078   -1.3841 H         1 UNK         0.0000 
     23 O23         1.1795   -0.7599    1.2725 O.2       1 UNK         0.0000 
     24 H24         1.0618   -1.4677   -1.9191 H         1 UNK         0.0000 
     25 C25         1.8702   -2.9280   -0.5473 C.3       1 UNK         0.0000 
     26 H26         2.4100   -2.9323    0.4039 H         1 UNK         0.0000 
     27 H27         2.4952   -3.4071   -1.3079 H         1 UNK         0.0000 
     28 C28         0.5316   -3.6114   -0.4232 C.ar      1 UNK         0.0000 
     29 C29        -0.1017   -3.7555    0.8141 C.ar      1 UNK         0.0000 
     30 C30        -1.4449   -4.1285    0.8931 C.ar      1 UNK         0.0000 
     31 H31        -1.9576   -4.1805    1.8483 H         1 UNK         0.0000 
     32 H32         0.4404   -3.5102    1.7228 H         1 UNK         0.0000 
     33 C33        -0.1760   -3.9510   -1.5831 C.ar      1 UNK         0.0000 
     34 H34         0.3119   -3.8710   -2.5523 H         1 UNK         0.0000 
     35 C35        -1.5150   -4.3194   -1.5205 C.ar      1 UNK         0.0000 
     36 H36        -2.0833   -4.5184   -2.4236 H         1 UNK         0.0000 
     37 C37        -2.1516   -4.3479   -0.2821 C.ar      1 UNK         0.0000 
     38 O38        -3.5473   -4.4667   -0.2411 O.3       1 UNK         0.0000 
     39 C39        -4.0873   -3.2419   -0.6209 C.ar      1 UNK         0.0000 
     40 C40        -4.5920   -3.0880   -1.9086 C.ar      1 UNK         0.0000 
     41 C41        -4.8946   -1.8066   -2.3617 C.ar      1 UNK         0.0000 
     42 H42        -5.2237   -1.6496   -3.3843 H         1 UNK         0.0000 
     43 H43        -4.6714   -3.9512   -2.5610 H         1 UNK         0.0000 
     44 C44        -4.0068   -2.1628    0.2609 C.ar      1 UNK         0.0000 
     45 H45        -3.6522   -2.3209    1.2739 H         1 UNK         0.0000 
     46 C46        -4.2927   -0.8876   -0.2041 C.ar      1 UNK         0.0000 
     47 H47        -4.1831   -0.0382    0.4646 H         1 UNK         0.0000 
     48 C48        -4.6902   -0.6984   -1.5342 C.ar      1 UNK         0.0000 
     49 C49        -4.7842    0.6616   -2.1318 C.2       1 UNK         0.0000 
     50 O50        -5.5170    0.9035   -3.0747 O.2       1 UNK         0.0000 
     51 C51        -3.8926    1.7709   -1.5725 C.3       1 UNK         0.0000 
     52 H52        -3.8188    2.5403   -2.3463 H         1 UNK         0.0000 
     53 H53        -4.3872    2.2144   -0.7014 H         1 UNK         0.0000 
     54 N54        -2.5807    1.3148   -1.1531 N.am      1 UNK         0.0000 
     55 H55        -2.0683    0.7055   -1.7964 H         1 UNK         0.0000 
     56 C56        -2.1068    1.6060    0.0738 C.2       1 UNK         0.0000 
     57 O57        -2.7318    2.3009    0.8790 O.2       1 UNK         0.0000 
     58 C58        -0.7434    1.0713    0.5124 C.3       1 UNK         0.0000 
     59 H59        -0.9388    0.5600    1.4609 H         1 UNK         0.0000 
     60 C60         0.2115    2.2510    0.8211 C.3       1 UNK         0.0000 
     61 H61         1.0656    1.8365    1.3641 H         1 UNK         0.0000 
     62 H62        -0.3164    2.9359    1.4906 H         1 UNK         0.0000 
     63 C63         0.6953    2.9735   -0.4118 C.ar      1 UNK         0.0000 
     64 C64         1.9561    2.6883   -0.9501 C.ar      1 UNK         0.0000 
     65 H65         2.5891    1.9440   -0.4677 H         1 UNK         0.0000 
     66 C66         2.4162    3.3692   -2.0779 C.ar      1 UNK         0.0000 
     67 H67         3.3962    3.1356   -2.4850 H         1 UNK         0.0000 
     68 C68         1.6251    4.3443   -2.6847 C.ar      1 UNK         0.0000 
     69 H69         1.9873    4.8756   -3.5595 H         1 UNK         0.0000 
     70 C70         0.3621    4.6284   -2.1620 C.ar      1 UNK         0.0000 
     71 H71        -0.2617    5.3858   -2.6266 H         1 UNK         0.0000 
     72 C72        -0.0987    3.9449   -1.0362 C.ar      1 UNK         0.0000 
     73 H73        -1.0775    4.1805   -0.6232 H         1 UNK         0.0000 
     74 C74         6.5291    1.1896    2.0388 C.3       1 UNK         0.0000 
     75 H75         6.6048    0.1944    2.4772 H         1 UNK         0.0000 
     76 H76         5.9372    1.8474    2.6782 H         1 UNK         0.0000 
     77 H77         7.5264    1.5990    1.8661 H         1 UNK         0.0000 
     78 S78         5.6859    1.0126    0.4549 S.3       1 UNK         0.0000 
     79 C79         5.5982    2.7580    0.0180 C.3       1 UNK         0.0000 
     80 H80         6.6024    3.1368   -0.1829 H         1 UNK         0.0000 
     81 H81         5.1213    3.3021    0.8363 H         1 UNK         0.0000 
     82 H82         4.9871    2.8184   -0.8829 H         1 UNK         0.0000 
     83 O83         4.2405    0.6317    0.8175 O.2       1 UNK         0.0000 
     84 C84         0.0635   -1.0101   -5.2606 C.3       1 UNK         0.0000 
     85 H85         0.4036   -0.5992   -6.2139 H         1 UNK         0.0000 
     86 H86        -0.6227   -1.8394   -5.4351 H         1 UNK         0.0000 
     87 H87         0.9081   -1.3097   -4.6351 H         1 UNK         0.0000 
     88 S88        -0.8608    0.2639   -4.3875 S.3       1 UNK         0.0000 
     89 C89         0.4827    1.4230   -4.0844 C.3       1 UNK         0.0000 
     90 H90         1.3141    0.8788   -3.6280 H         1 UNK         0.0000 
     91 H91         0.0918    2.1827   -3.4034 H         1 UNK         0.0000 
     92 H92         0.7868    1.8847   -5.0267 H         1 UNK         0.0000 
     93 O93        -1.1417   -0.3488   -2.9935 O.2       1 UNK         0.0000 
@<TRIPOS>BOND
     1    1    5 1    
     2    1    3 1    
     3    1    2 1    
     4    1    4 1    
     5    5    6 1    
     6    5   10 1    
     7    5   14 1    
     8    6    7 1    
     9    6    8 1    
    10    6    9 1    
    11   10   11 1    
    12   10   13 1    
    13   10   12 1    
    14   14   15 1    
    15   15   16 2    
    16   15   17 am   BACKBONE|DICT|INTERRES
    17   17   18 1    
    18   17   19 1    
    19   19   24 1    
    20   19   20 1    
    21   19   25 1    
    22   20   21 am   BACKBONE|DICT|INTERRES
    23   20   23 2    
    24   21   22 1    
    25   21   58 1    
    26   25   27 1    
    27   25   26 1    
    28   25   28 1    
    29   28   33 ar   
    30   28   29 ar   
    31   29   30 ar   
    32   29   32 1    
    33   30   37 ar   
    34   30   31 1    
    35   33   34 1    
    36   33   35 ar   
    37   35   36 1    
    38   35   37 ar   
    39   37   38 1    
    40   38   39 1    
    41   39   40 ar   
    42   39   44 ar   
    43   40   41 ar   
    44   40   43 1    
    45   41   42 1    
    46   41   48 ar   
    47   44   46 ar   
    48   44   45 1    
    49   46   48 ar   
    50   46   47 1    
    51   48   49 1    
    52   49   50 2    
    53   49   51 1    
    54   51   52 1    
    55   51   53 1    
    56   51   54 1    
    57   54   55 1    
    58   54   56 am   BACKBONE|DICT|INTERRES
    59   56   57 2    
    60   56   58 1    
    61   58   59 1    
    62   58   60 1    
    63   60   63 1    
    64   60   61 1    
    65   60   62 1    
    66   63   72 ar   
    67   63   64 ar   
    68   64   66 ar   
    69   64   65 1    
    70   66   68 ar   
    71   66   67 1    
    72   68   69 1    
    73   68   70 ar   
    74   70   71 1    
    75   70   72 ar   
    76   72   73 1    
    77   74   77 1    
    78   74   78 1    
    79   74   75 1    
    80   74   76 1    
    81   78   79 1    
    82   78   83 2    
    83   79   80 1    
    84   79   82 1    
    85   79   81 1    
    86   84   86 1    
    87   84   85 1    
    88   84   87 1    
    89   84   88 1    
    90   88   89 1    
    91   88   93 2    
    92   89   92 1    
    93   89   90 1    
    94   89   91 1    
@<TRIPOS>SUBSTRUCTURE
     1 UNK         1 GROUP             0       ****    0 ROOT    
@<TRIPOS>MOLECULE
Cpd3-3500
93   94    1
SMALL
USER_CHARGES


@<TRIPOS>ATOM
      1 C1          5.9108    2.4255   -2.1555 C.3       1 UNK         0.0000 
      2 H2          6.2348    3.3649   -2.6105 H         1 UNK         0.0000 
      3 H3          6.0563    2.4944   -1.0745 H         1 UNK         0.0000 
      4 H4          6.5348    1.6145   -2.5408 H         1 UNK         0.0000 
      5 C5          4.4447    2.1713   -2.4868 C.3       1 UNK         0.0000 
      6 C6          4.2771    1.9973   -3.9950 C.3       1 UNK         0.0000 
      7 H7          3.2305    1.8839   -4.2777 H         1 UNK         0.0000 
      8 H8          4.6872    2.8777   -4.4982 H         1 UNK         0.0000 
      9 H9          4.8353    1.1190   -4.3336 H         1 UNK         0.0000 
     10 C10         3.5636    3.2822   -1.9237 C.3       1 UNK         0.0000 
     11 H11         3.8584    4.2388   -2.3645 H         1 UNK         0.0000 
     12 H12         2.5101    3.1041   -2.1471 H         1 UNK         0.0000 
     13 H13         3.6870    3.3501   -0.8372 H         1 UNK         0.0000 
     14 O14         4.1648    0.9219   -1.7807 O.3       1 UNK         0.0000 
     15 C15         2.9672    0.3227   -1.8842 C.2       1 UNK         0.0000 
     16 O16         2.0421    0.7130   -2.5867 O.2       1 UNK         0.0000 
     17 N17         2.9294   -0.8035   -1.1203 N.am      1 UNK         0.0000 
     18 H18         3.6034   -0.8455   -0.3458 H         1 UNK         0.0000 
     19 C19         1.6606   -1.4950   -0.9422 C.3       1 UNK         0.0000 
     20 C20         0.8260   -0.6847    0.0637 C.2       1 UNK         0.0000 
     21 N21        -0.1283    0.0991   -0.4871 N.am      1 UNK         0.0000 
     22 H22        -0.1673    0.1283   -1.5110 H         1 UNK         0.0000 
     23 O23         1.0927   -0.7073    1.2657 O.2       1 UNK         0.0000 
     24 H24         1.1523   -1.5065   -1.9116 H         1 UNK         0.0000 
     25 C25         1.8823   -2.9331   -0.4596 C.3       1 UNK         0.0000 
     26 H26         2.3742   -2.9140    0.5178 H         1 UNK         0.0000 
     27 H27         2.5443   -3.4329   -1.1735 H         1 UNK         0.0000 
     28 C28         0.5405   -3.6189   -0.3776 C.ar      1 UNK         0.0000 
     29 C29        -0.1284   -3.7675    0.8395 C.ar      1 UNK         0.0000 
     30 C30        -1.4720   -4.1454    0.8771 C.ar      1 UNK         0.0000 
     31 H31        -2.0125   -4.2024    1.8164 H         1 UNK         0.0000 
     32 H32         0.3852   -3.5229    1.7649 H         1 UNK         0.0000 
     33 C33        -0.1285   -3.9629   -1.5589 C.ar      1 UNK         0.0000 
     34 H34         0.3898   -3.8872   -2.5119 H         1 UNK         0.0000 
     35 C35        -1.4685   -4.3320   -1.5380 C.ar      1 UNK         0.0000 
     36 H36        -2.0094   -4.5315   -2.4577 H         1 UNK         0.0000 
     37 C37        -2.1428   -4.3605   -0.3201 C.ar      1 UNK         0.0000 
     38 O38        -3.5389   -4.4740   -0.3259 O.3       1 UNK         0.0000 
     39 C39        -4.0633   -3.2354   -0.6839 C.ar      1 UNK         0.0000 
     40 C40        -4.5537   -3.0462   -1.9733 C.ar      1 UNK         0.0000 
     41 C41        -4.8610   -1.7543   -2.3923 C.ar      1 UNK         0.0000 
     42 H42        -5.1896   -1.5711   -3.4106 H         1 UNK         0.0000 
     43 H43        -4.6261   -3.8916   -2.6493 H         1 UNK         0.0000 
     44 C44        -3.9862   -2.1793    0.2240 C.ar      1 UNK         0.0000 
     45 H45        -3.6364   -2.3619    1.2343 H         1 UNK         0.0000 
     46 C46        -4.2738   -0.8925   -0.2072 C.ar      1 UNK         0.0000 
     47 H47        -4.1598   -0.0624    0.4844 H         1 UNK         0.0000 
     48 C48        -4.6718   -0.6685   -1.5311 C.ar      1 UNK         0.0000 
     49 C49        -4.8152    0.7129   -2.0669 C.2       1 UNK         0.0000 
     50 O50        -5.5101    0.9581   -3.0378 O.2       1 UNK         0.0000 
     51 C51        -4.0270    1.8403   -1.3957 C.3       1 UNK         0.0000 
     52 H52        -4.0999    2.7119   -2.0519 H         1 UNK         0.0000 
     53 H53        -4.4953    2.0890   -0.4377 H         1 UNK         0.0000 
     54 N54        -2.6399    1.5070   -1.1384 N.am      1 UNK         0.0000 
     55 H55        -2.0556    1.2394   -1.9366 H         1 UNK         0.0000 
     56 C56        -2.1144    1.5160    0.1052 C.2       1 UNK         0.0000 
     57 O57        -2.7765    1.7620    1.1148 O.2       1 UNK         0.0000 
     58 C58        -0.6057    1.2789    0.2171 C.3       1 UNK         0.0000 
     59 H59        -0.4072    1.1335    1.2804 H         1 UNK         0.0000 
     60 C60         0.1785    2.5093   -0.2993 C.3       1 UNK         0.0000 
     61 H61         0.0596    2.5564   -1.3885 H         1 UNK         0.0000 
     62 H62         1.2382    2.3128   -0.0962 H         1 UNK         0.0000 
     63 C63        -0.2571    3.8037    0.3367 C.ar      1 UNK         0.0000 
     64 C64        -1.1877    4.6348   -0.2956 C.ar      1 UNK         0.0000 
     65 H65        -1.5726    4.3573   -1.2747 H         1 UNK         0.0000 
     66 C66        -1.6230    5.8103    0.3169 C.ar      1 UNK         0.0000 
     67 H67        -2.3441    6.4466   -0.1869 H         1 UNK         0.0000 
     68 C68        -1.1307    6.1683    1.5719 C.ar      1 UNK         0.0000 
     69 H69        -1.4670    7.0834    2.0489 H         1 UNK         0.0000 
     70 C70        -0.1993    5.3469    2.2095 C.ar      1 UNK         0.0000 
     71 H71         0.1919    5.6221    3.1841 H         1 UNK         0.0000 
     72 C72         0.2325    4.1731    1.5943 C.ar      1 UNK         0.0000 
     73 H73         0.9602    3.5347    2.0912 H         1 UNK         0.0000 
     74 C74         0.0855    2.4513   -4.3259 C.3       1 UNK         0.0000 
     75 H75         0.8993    2.5107   -3.6030 H         1 UNK         0.0000 
     76 H76        -0.8021    2.9836   -3.9742 H         1 UNK         0.0000 
     77 H77         0.4119    2.8288   -5.2973 H         1 UNK         0.0000 
     78 S78        -0.3203    0.7032   -4.4833 S.3       1 UNK         0.0000 
     79 C79        -1.6753    0.8631   -5.6625 C.3       1 UNK         0.0000 
     80 H80        -1.2814    1.2385   -6.6089 H         1 UNK         0.0000 
     81 H81        -2.4235    1.5424   -5.2484 H         1 UNK         0.0000 
     82 H82        -2.0975   -0.1326   -5.8017 H         1 UNK         0.0000 
     83 O83        -1.0243    0.3306   -3.1626 O.2       1 UNK         0.0000 
     84 C84         4.9093    2.1431    2.0565 C.3       1 UNK         0.0000 
     85 H85         5.4733    2.3460    1.1461 H         1 UNK         0.0000 
     86 H86         5.5626    1.7187    2.8215 H         1 UNK         0.0000 
     87 H87         4.4297    3.0584    2.4096 H         1 UNK         0.0000 
     88 S88         3.6360    0.9358    1.6370 S.3       1 UNK         0.0000 
     89 C89         2.9929    0.6764    3.3002 C.3       1 UNK         0.0000 
     90 H90         2.5582    1.6097    3.6639 H         1 UNK         0.0000 
     91 H91         3.8157    0.3512    3.9403 H         1 UNK         0.0000 
     92 H92         2.2258   -0.0921    3.2150 H         1 UNK         0.0000 
     93 O93         4.4066   -0.3495    1.2918 O.2       1 UNK         0.0000 
@<TRIPOS>BOND
     1    1    5 1    
     2    1    2 1    
     3    1    4 1    
     4    1    3 1    
     5    5    6 1    
     6    5   10 1    
     7    5   14 1    
     8    6    7 1    
     9    6    9 1    
    10    6    8 1    
    11   10   12 1    
    12   10   11 1    
    13   10   13 1    
    14   14   15 1    
    15   15   16 2    
    16   15   17 am   BACKBONE|DICT|INTERRES
    17   17   18 1    
    18   17   19 1    
    19   19   24 1    
    20   19   20 1    
    21   19   25 1    
    22   20   21 am   BACKBONE|DICT|INTERRES
    23   20   23 2    
    24   21   22 1    
    25   21   58 1    
    26   25   27 1    
    27   25   26 1    
    28   25   28 1    
    29   28   33 ar   
    30   28   29 ar   
    31   29   30 ar   
    32   29   32 1    
    33   30   37 ar   
    34   30   31 1    
    35   33   34 1    
    36   33   35 ar   
    37   35   36 1    
    38   35   37 ar   
    39   37   38 1    
    40   38   39 1    
    41   39   40 ar   
    42   39   44 ar   
    43   40   41 ar   
    44   40   43 1    
    45   41   42 1    
    46   41   48 ar   
    47   44   46 ar   
    48   44   45 1    
    49   46   48 ar   
    50   46   47 1    
    51   48   49 1    
    52   49   50 2    
    53   49   51 1    
    54   51   52 1    
    55   51   53 1    
    56   51   54 1    
    57   54   55 1    
    58   54   56 am   BACKBONE|DICT|INTERRES
    59   56   58 1    
    60   56   57 2    
    61   58   59 1    
    62   58   60 1    
    63   60   61 1    
    64   60   62 1    
    65   60   63 1    
    66   63   64 ar   
    67   63   72 ar   
    68   64   65 1    
    69   64   66 ar   
    70   66   67 1    
    71   66   68 ar   
    72   68   69 1    
    73   68   70 ar   
    74   70   72 ar   
    75   70   71 1    
    76   72   73 1    
    77   74   78 1    
    78   74   77 1    
    79   74   75 1    
    80   74   76 1    
    81   78   79 1    
    82   78   83 2    
    83   79   82 1    
    84   79   80 1    
    85   79   81 1    
    86   84   88 1    
    87   84   85 1    
    88   84   86 1    
    89   84   87 1    
    90   88   93 2    
    91   88   89 1    
    92   89   90 1    
    93   89   91 1    
    94   89   92 1    
@<TRIPOS>SUBSTRUCTURE
     1 UNK         1 GROUP             0       ****    0 ROOT    
@<TRIPOS>MOLECULE
Cpd3-4000
93   94    1
SMALL
USER_CHARGES


@<TRIPOS>ATOM
      1 C1          6.7425    1.4253   -2.4018 C.3       1 UNK         0.0000 
      2 H2          7.3125    2.0321   -3.1099 H         1 UNK         0.0000 
      3 H3          6.7290    1.9402   -1.4365 H         1 UNK         0.0000 
      4 H4          7.2506    0.4632   -2.2843 H         1 UNK         0.0000 
      5 C5          5.3244    1.2278   -2.9258 C.3       1 UNK         0.0000 
      6 C6          5.3474    0.4996   -4.2663 C.3       1 UNK         0.0000 
      7 H7          5.9134    1.0946   -4.9888 H         1 UNK         0.0000 
      8 H8          5.8418   -0.4712   -4.1593 H         1 UNK         0.0000 
      9 H9          4.3375    0.3491   -4.6507 H         1 UNK         0.0000 
     10 C10         4.6021    2.5704   -3.0061 C.3       1 UNK         0.0000 
     11 H11         5.2043    3.2624   -3.6022 H         1 UNK         0.0000 
     12 H12         3.6217    2.4641   -3.4703 H         1 UNK         0.0000 
     13 H13         4.4825    2.9956   -2.0043 H         1 UNK         0.0000 
     14 O14         4.7122    0.3685   -1.9096 O.3       1 UNK         0.0000 
     15 C15         3.4230   -0.0193   -2.0283 C.2       1 UNK         0.0000 
     16 O16         2.6503    0.3795   -2.8907 O.2       1 UNK         0.0000 
     17 N17         3.1026   -0.9124   -1.0685 N.am      1 UNK         0.0000 
     18 H18         3.7961   -1.1990   -0.3672 H         1 UNK         0.0000 
     19 C19         1.7628   -1.4585   -0.9596 C.3       1 UNK         0.0000 
     20 C20         0.9750   -0.6114    0.0518 C.2       1 UNK         0.0000 
     21 N21        -0.0045    0.1788   -0.4519 N.am      1 UNK         0.0000 
     22 H22        -0.1279    0.2119   -1.4657 H         1 UNK         0.0000 
     23 O23         1.2716   -0.6388    1.2458 O.2       1 UNK         0.0000 
     24 H24         1.2870   -1.3987   -1.9440 H         1 UNK         0.0000 
     25 C25         1.8513   -2.9209   -0.4933 C.3       1 UNK         0.0000 
     26 H26         2.3543   -2.9459    0.4779 H         1 UNK         0.0000 
     27 H27         2.4792   -3.4565   -1.2131 H         1 UNK         0.0000 
     28 C28         0.4798   -3.5390   -0.4074 C.ar      1 UNK         0.0000 
     29 C29        -0.1682   -3.7028    0.8195 C.ar      1 UNK         0.0000 
     30 C30        -1.5058   -4.0990    0.8779 C.ar      1 UNK         0.0000 
     31 H31        -2.0279   -4.1763    1.8262 H         1 UNK         0.0000 
     32 H32         0.3628   -3.4710    1.7385 H         1 UNK         0.0000 
     33 C33        -0.2106   -3.8654   -1.5809 C.ar      1 UNK         0.0000 
     34 H34         0.2894   -3.7731   -2.5423 H         1 UNK         0.0000 
     35 C35        -1.5435   -4.2573   -1.5391 C.ar      1 UNK         0.0000 
     36 H36        -2.0965   -4.4564   -2.4514 H         1 UNK         0.0000 
     37 C37        -2.1921   -4.3235   -0.3083 C.ar      1 UNK         0.0000 
     38 O38        -3.5841   -4.4905   -0.2851 O.3       1 UNK         0.0000 
     39 C39        -4.1508   -3.2757   -0.6564 C.ar      1 UNK         0.0000 
     40 C40        -4.6121   -3.1054   -1.9587 C.ar      1 UNK         0.0000 
     41 C41        -4.9014   -1.8180   -2.4025 C.ar      1 UNK         0.0000 
     42 H42        -5.1848   -1.6441   -3.4361 H         1 UNK         0.0000 
     43 H43        -4.6575   -3.9575   -2.6285 H         1 UNK         0.0000 
     44 C44        -4.1190   -2.2142    0.2488 C.ar      1 UNK         0.0000 
     45 H45        -3.7985   -2.3879    1.2704 H         1 UNK         0.0000 
     46 C46        -4.3913   -0.9333   -0.2058 C.ar      1 UNK         0.0000 
     47 H47        -4.2972   -0.0941    0.4783 H         1 UNK         0.0000 
     48 C48        -4.7303   -0.7237   -1.5493 C.ar      1 UNK         0.0000 
     49 C49        -4.7612    0.6454   -2.1269 C.2       1 UNK         0.0000 
     50 O50        -5.3710    0.9111   -3.1488 O.2       1 UNK         0.0000 
     51 C51        -3.9273    1.7236   -1.4376 C.3       1 UNK         0.0000 
     52 H52        -3.8839    2.5886   -2.1081 H         1 UNK         0.0000 
     53 H53        -4.4305    2.0377   -0.5169 H         1 UNK         0.0000 
     54 N54        -2.5975    1.2673   -1.0813 N.am      1 UNK         0.0000 
     55 H55        -2.0471    0.7730   -1.7896 H         1 UNK         0.0000 
     56 C56        -2.0956    1.4878    0.1481 C.2       1 UNK         0.0000 
     57 O57        -2.7461    2.0245    1.0488 O.2       1 UNK         0.0000 
     58 C58        -0.6320    1.1558    0.4232 C.3       1 UNK         0.0000 
     59 H59        -0.6089    0.7295    1.4277 H         1 UNK         0.0000 
     60 C60         0.1635    2.4869    0.4642 C.3       1 UNK         0.0000 
     61 H61         1.2040    2.2299    0.6859 H         1 UNK         0.0000 
     62 H62        -0.2233    3.0766    1.3005 H         1 UNK         0.0000 
     63 C63         0.0758    3.2901   -0.8115 C.ar      1 UNK         0.0000 
     64 C64         1.0176    3.1337   -1.8343 C.ar      1 UNK         0.0000 
     65 H65         1.8208    2.4084   -1.7226 H         1 UNK         0.0000 
     66 C66         0.9397    3.9057   -2.9962 C.ar      1 UNK         0.0000 
     67 H67         1.6877    3.7870   -3.7752 H         1 UNK         0.0000 
     68 C68        -0.0906    4.8306   -3.1594 C.ar      1 UNK         0.0000 
     69 H69        -0.1480    5.4308   -4.0621 H         1 UNK         0.0000 
     70 C70        -1.0501    4.9760   -2.1556 C.ar      1 UNK         0.0000 
     71 H71        -1.8591    5.6904   -2.2742 H         1 UNK         0.0000 
     72 C72        -0.9629    4.2142   -0.9917 C.ar      1 UNK         0.0000 
     73 H73        -1.7038    4.3409   -0.2050 H         1 UNK         0.0000 
     74 C74         6.8491   -0.3963    0.7764 C.3       1 UNK         0.0000 
     75 H75         6.2020    0.1751    0.1066 H         1 UNK         0.0000 
     76 H76         7.8977   -0.3158    0.4821 H         1 UNK         0.0000 
     77 H77         6.7241   -0.0687    1.8088 H         1 UNK         0.0000 
     78 S78         6.3341   -2.1234    0.7025 S.3       1 UNK         0.0000 
     79 C79         6.5839   -2.3867   -1.0667 C.3       1 UNK         0.0000 
     80 H80         6.0068   -1.6378   -1.6153 H         1 UNK         0.0000 
     81 H81         6.2280   -3.3925   -1.2924 H         1 UNK         0.0000 
     82 H82         7.6493   -2.3083   -1.2929 H         1 UNK         0.0000 
     83 O83         4.8085   -2.0851    0.8919 O.2       1 UNK         0.0000 
     84 C84         0.4473    0.7967   -4.9677 C.3       1 UNK         0.0000 
     85 H85         0.4269    1.2760   -5.9487 H         1 UNK         0.0000 
     86 H86         1.0593   -0.1051   -4.9934 H         1 UNK         0.0000 
     87 H87         0.8193    1.4674   -4.1911 H         1 UNK         0.0000 
     88 S88        -1.2267    0.2938   -4.5425 S.3       1 UNK         0.0000 
     89 C89        -1.9772    1.9311   -4.4337 C.3       1 UNK         0.0000 
     90 H90        -3.0400    1.7908   -4.2246 H         1 UNK         0.0000 
     91 H91        -1.8564    2.4473   -5.3881 H         1 UNK         0.0000 
     92 H92        -1.4820    2.4817   -3.6267 H         1 UNK         0.0000 
     93 O93        -1.1452   -0.1854   -3.0753 O.2       1 UNK         0.0000 
@<TRIPOS>BOND
     1    1    3 1    
     2    1    2 1    
     3    1    4 1    
     4    1    5 1    
     5    5   10 1    
     6    5   14 1    
     7    5    6 1    
     8    6    7 1    
     9    6    8 1    
    10    6    9 1    
    11   10   13 1    
    12   10   11 1    
    13   10   12 1    
    14   14   15 1    
    15   15   17 am   BACKBONE|DICT|INTERRES
    16   15   16 2    
    17   17   18 1    
    18   17   19 1    
    19   19   24 1    
    20   19   20 1    
    21   19   25 1    
    22   20   23 2    
    23   20   21 am   BACKBONE|DICT|INTERRES
    24   21   58 1    
    25   21   22 1    
    26   25   26 1    
    27   25   27 1    
    28   25   28 1    
    29   28   29 ar   
    30   28   33 ar   
    31   29   32 1    
    32   29   30 ar   
    33   30   31 1    
    34   30   37 ar   
    35   33   34 1    
    36   33   35 ar   
    37   35   37 ar   
    38   35   36 1    
    39   37   38 1    
    40   38   39 1    
    41   39   44 ar   
    42   39   40 ar   
    43   40   41 ar   
    44   40   43 1    
    45   41   48 ar   
    46   41   42 1    
    47   44   46 ar   
    48   44   45 1    
    49   46   47 1    
    50   46   48 ar   
    51   48   49 1    
    52   49   51 1    
    53   49   50 2    
    54   51   54 1    
    55   51   53 1    
    56   51   52 1    
    57   54   56 am   BACKBONE|DICT|INTERRES
    58   54   55 1    
    59   56   58 1    
    60   56   57 2    
    61   58   60 1    
    62   58   59 1    
    63   60   61 1    
    64   60   62 1    
    65   60   63 1    
    66   63   72 ar   
    67   63   64 ar   
    68   64   65 1    
    69   64   66 ar   
    70   66   68 ar   
    71   66   67 1    
    72   68   70 ar   
    73   68   69 1    
    74   70   71 1    
    75   70   72 ar   
    76   72   73 1    
    77   74   77 1    
    78   74   75 1    
    79   74   76 1    
    80   74   78 1    
    81   78   83 2    
    82   78   79 1    
    83   79   80 1    
    84   79   81 1    
    85   79   82 1    
    86   84   88 1    
    87   84   87 1    
    88   84   85 1    
    89   84   86 1    
    90   88   89 1    
    91   88   93 2    
    92   89   90 1    
    93   89   92 1    
    94   89   91 1    
@<TRIPOS>SUBSTRUCTURE
     1 UNK         1 GROUP             0       ****    0 ROOT    
@<TRIPOS>MOLECULE
Cpd3-4500
93   94    1
SMALL
USER_CHARGES


@<TRIPOS>ATOM
      1 C1          6.3894    1.2589   -3.2203 C.3       1 UNK         0.0000 
      2 H2          7.0065    0.9739   -2.3639 H         1 UNK         0.0000 
      3 H3          7.0503    1.4627   -4.0667 H         1 UNK         0.0000 
      4 H4          5.8405    2.1731   -2.9750 H         1 UNK         0.0000 
      5 C5          5.4224    0.1380   -3.5845 C.3       1 UNK         0.0000 
      6 C6          6.1810   -1.1625   -3.8305 C.3       1 UNK         0.0000 
      7 H7          6.9052   -1.0077   -4.6359 H         1 UNK         0.0000 
      8 H8          6.7281   -1.4525   -2.9282 H         1 UNK         0.0000 
      9 H9          5.5036   -1.9682   -4.1151 H         1 UNK         0.0000 
     10 C10         4.5700    0.5524   -4.7814 C.3       1 UNK         0.0000 
     11 H11         3.9715    1.4334   -4.5262 H         1 UNK         0.0000 
     12 H12         5.2287    0.8180   -5.6133 H         1 UNK         0.0000 
     13 H13         3.9078   -0.2527   -5.1005 H         1 UNK         0.0000 
     14 O14         4.5907    0.0159   -2.3868 O.3       1 UNK         0.0000 
     15 C15         3.5575   -0.8532   -2.3552 C.2       1 UNK         0.0000 
     16 O16         3.2586   -1.6271   -3.2573 O.2       1 UNK         0.0000 
     17 N17         2.8872   -0.7493   -1.1875 N.am      1 UNK         0.0000 
     18 H18         3.1895   -0.0465   -0.5011 H         1 UNK         0.0000 
     19 C19         1.6474   -1.4783   -0.9819 C.3       1 UNK         0.0000 
     20 C20         0.8724   -0.6754    0.0680 C.2       1 UNK         0.0000 
     21 N21        -0.1069    0.1229   -0.4122 N.am      1 UNK         0.0000 
     22 H22        -0.2818    0.1109   -1.4191 H         1 UNK         0.0000 
     23 O23         1.1882   -0.7258    1.2547 O.2       1 UNK         0.0000 
     24 H24         1.0875   -1.4867   -1.9258 H         1 UNK         0.0000 
     25 C25         1.8655   -2.9305   -0.5190 C.3       1 UNK         0.0000 
     26 H26         2.3848   -2.9173    0.4432 H         1 UNK         0.0000 
     27 H27         2.5038   -3.4229   -1.2590 H         1 UNK         0.0000 
     28 C28         0.5231   -3.6075   -0.4092 C.ar      1 UNK         0.0000 
     29 C29        -0.1205   -3.7507    0.8230 C.ar      1 UNK         0.0000 
     30 C30        -1.4629   -4.1280    0.8922 C.ar      1 UNK         0.0000 
     31 H31        -1.9824   -4.1825    1.8436 H         1 UNK         0.0000 
     32 H32         0.4142   -3.5048    1.7360 H         1 UNK         0.0000 
     33 C33        -0.1748   -3.9485   -1.5745 C.ar      1 UNK         0.0000 
     34 H34         0.3215   -3.8714   -2.5394 H         1 UNK         0.0000 
     35 C35        -1.5136   -4.3204   -1.5219 C.ar      1 UNK         0.0000 
     36 H36        -2.0741   -4.5221   -2.4293 H         1 UNK         0.0000 
     37 C37        -2.1595   -4.3511   -0.2885 C.ar      1 UNK         0.0000 
     38 O38        -3.5551   -4.4779   -0.2586 O.3       1 UNK         0.0000 
     39 C39        -4.0976   -3.2535   -0.6350 C.ar      1 UNK         0.0000 
     40 C40        -4.5900   -3.0923   -1.9268 C.ar      1 UNK         0.0000 
     41 C41        -4.8906   -1.8086   -2.3746 C.ar      1 UNK         0.0000 
     42 H42        -5.2086   -1.6451   -3.3996 H         1 UNK         0.0000 
     43 H43        -4.6601   -3.9512   -2.5857 H         1 UNK         0.0000 
     44 C44        -4.0304   -2.1806    0.2555 C.ar      1 UNK         0.0000 
     45 H45        -3.6866   -2.3448    1.2710 H         1 UNK         0.0000 
     46 C46        -4.3134   -0.9032   -0.2042 C.ar      1 UNK         0.0000 
     47 H47        -4.2082   -0.0582    0.4708 H         1 UNK         0.0000 
     48 C48        -4.6965   -0.7057   -1.5375 C.ar      1 UNK         0.0000 
     49 C49        -4.7832    0.6596   -2.1231 C.2       1 UNK         0.0000 
     50 O50        -5.4814    0.9072   -3.0903 O.2       1 UNK         0.0000 
     51 C51        -3.9224    1.7648   -1.5113 C.3       1 UNK         0.0000 
     52 H52        -3.8787    2.5819   -2.2381 H         1 UNK         0.0000 
     53 H53        -4.4178    2.1444   -0.6111 H         1 UNK         0.0000 
     54 N54        -2.5954    1.3187   -1.1301 N.am      1 UNK         0.0000 
     55 H55        -2.0777    0.7412   -1.7961 H         1 UNK         0.0000 
     56 C56        -2.0956    1.5989    0.0904 C.2       1 UNK         0.0000 
     57 O57        -2.7186    2.2568    0.9270 O.2       1 UNK         0.0000 
     58 C58        -0.6921    1.1262    0.4592 C.3       1 UNK         0.0000 
     59 H59        -0.7940    0.6703    1.4478 H         1 UNK         0.0000 
     60 C60         0.2444    2.3507    0.6123 C.3       1 UNK         0.0000 
     61 H61         1.2121    1.9707    0.9575 H         1 UNK         0.0000 
     62 H62        -0.1758    2.9937    1.3913 H         1 UNK         0.0000 
     63 C63         0.4372    3.1379   -0.6611 C.ar      1 UNK         0.0000 
     64 C64        -0.4433    4.1722   -1.0074 C.ar      1 UNK         0.0000 
     65 H65        -1.2877    4.3918   -0.3575 H         1 UNK         0.0000 
     66 C66        -0.2366    4.9308   -2.1596 C.ar      1 UNK         0.0000 
     67 H67        -0.9248    5.7332   -2.4078 H         1 UNK         0.0000 
     68 C68         0.8595    4.6692   -2.9841 C.ar      1 UNK         0.0000 
     69 H69         1.0279    5.2670   -3.8744 H         1 UNK         0.0000 
     70 C70         1.7327    3.6317   -2.6591 C.ar      1 UNK         0.0000 
     71 H71         2.5867    3.4187   -3.2965 H         1 UNK         0.0000 
     72 C72         1.5175    2.8666   -1.5105 C.ar      1 UNK         0.0000 
     73 H73         2.2048    2.0654   -1.2439 H         1 UNK         0.0000 
     74 C74         6.2620    1.3140    0.3989 C.3       1 UNK         0.0000 
     75 H75         6.2193    0.4082   -0.2085 H         1 UNK         0.0000 
     76 H76         6.2757    1.0649    1.4620 H         1 UNK         0.0000 
     77 H77         7.1296    1.9162    0.1214 H         1 UNK         0.0000 
     78 S78         4.7526    2.2323    0.0419 S.3       1 UNK         0.0000 
     79 C79         4.9372    3.5348    1.2739 C.3       1 UNK         0.0000 
     80 H80         5.8168    4.1339    1.0307 H         1 UNK         0.0000 
     81 H81         5.0317    3.0743    2.2593 H         1 UNK         0.0000 
     82 H82         4.0386    4.1508    1.2225 H         1 UNK         0.0000 
     83 O83         3.6196    1.3423    0.5839 O.2       1 UNK         0.0000 
     84 C84         1.0338    0.4454   -4.3938 C.3       1 UNK         0.0000 
     85 H85         1.3625    0.9860   -5.2844 H         1 UNK         0.0000 
     86 H86         1.4347   -0.5699   -4.3963 H         1 UNK         0.0000 
     87 H87         1.3349    0.9727   -3.4831 H         1 UNK         0.0000 
     88 S88        -0.7614    0.3191   -4.4154 S.3       1 UNK         0.0000 
     89 C89        -1.1646    2.0692   -4.2546 C.3       1 UNK         0.0000 
     90 H90        -0.7407    2.6170   -5.0987 H         1 UNK         0.0000 
     91 H91        -0.7545    2.4324   -3.3074 H         1 UNK         0.0000 
     92 H92        -2.2527    2.1528   -4.2679 H         1 UNK         0.0000 
     93 O93        -1.1211   -0.2819   -3.0361 O.2       1 UNK         0.0000 
@<TRIPOS>BOND
     1    1    5 1    
     2    1    3 1    
     3    1    2 1    
     4    1    4 1    
     5    5    6 1    
     6    5   10 1    
     7    5   14 1    
     8    6    9 1    
     9    6    7 1    
    10    6    8 1    
    11   10   13 1    
    12   10   12 1    
    13   10   11 1    
    14   14   15 1    
    15   15   16 2    
    16   15   17 am   BACKBONE|DICT|INTERRES
    17   17   18 1    
    18   17   19 1    
    19   19   24 1    
    20   19   20 1    
    21   19   25 1    
    22   20   21 am   BACKBONE|DICT|INTERRES
    23   20   23 2    
    24   21   22 1    
    25   21   58 1    
    26   25   28 1    
    27   25   27 1    
    28   25   26 1    
    29   28   33 ar   
    30   28   29 ar   
    31   29   30 ar   
    32   29   32 1    
    33   30   37 ar   
    34   30   31 1    
    35   33   35 ar   
    36   33   34 1    
    37   35   36 1    
    38   35   37 ar   
    39   37   38 1    
    40   38   39 1    
    41   39   40 ar   
    42   39   44 ar   
    43   40   41 ar   
    44   40   43 1    
    45   41   42 1    
    46   41   48 ar   
    47   44   46 ar   
    48   44   45 1    
    49   46   48 ar   
    50   46   47 1    
    51   48   49 1    
    52   49   50 2    
    53   49   51 1    
    54   51   52 1    
    55   51   53 1    
    56   51   54 1    
    57   54   55 1    
    58   54   56 am   BACKBONE|DICT|INTERRES
    59   56   57 2    
    60   56   58 1    
    61   58   59 1    
    62   58   60 1    
    63   60   63 1    
    64   60   61 1    
    65   60   62 1    
    66   63   64 ar   
    67   63   72 ar   
    68   64   66 ar   
    69   64   65 1    
    70   66   67 1    
    71   66   68 ar   
    72   68   69 1    
    73   68   70 ar   
    74   70   71 1    
    75   70   72 ar   
    76   72   73 1    
    77   74   77 1    
    78   74   78 1    
    79   74   75 1    
    80   74   76 1    
    81   78   79 1    
    82   78   83 2    
    83   79   82 1    
    84   79   80 1    
    85   79   81 1    
    86   84   88 1    
    87   84   86 1    
    88   84   85 1    
    89   84   87 1    
    90   88   89 1    
    91   88   93 2    
    92   89   92 1    
    93   89   90 1    
    94   89   91 1    
@<TRIPOS>SUBSTRUCTURE
     1 UNK         1 GROUP             0       ****    0 ROOT    
@<TRIPOS>MOLECULE
Cpd3-5000
93   94    1
SMALL
USER_CHARGES


@<TRIPOS>ATOM
      1 C1          6.2392    1.2122   -3.5210 C.3       1 UNK         0.0000 
      2 H2          5.8032    2.1492   -3.1610 H         1 UNK         0.0000 
      3 H3          6.8845    0.7956   -2.7422 H         1 UNK         0.0000 
      4 H4          6.8518    1.4277   -4.4002 H         1 UNK         0.0000 
      5 C5          5.1414    0.2209   -3.8893 C.3       1 UNK         0.0000 
      6 C6          5.7511   -1.1036   -4.3390 C.3       1 UNK         0.0000 
      7 H7          6.4005   -0.9222   -5.2005 H         1 UNK         0.0000 
      8 H8          6.3589   -1.5288   -3.5346 H         1 UNK         0.0000 
      9 H9          4.9796   -1.8192   -4.6239 H         1 UNK         0.0000 
     10 C10         4.2153    0.8234   -4.9421 C.3       1 UNK         0.0000 
     11 H11         4.8088    1.1305   -5.8080 H         1 UNK         0.0000 
     12 H12         3.4621    0.1055   -5.2691 H         1 UNK         0.0000 
     13 H13         3.7172    1.7108   -4.5369 H         1 UNK         0.0000 
     14 O14         4.4245    0.0457   -2.6266 O.3       1 UNK         0.0000 
     15 C15         3.3464   -0.7574   -2.5507 C.2       1 UNK         0.0000 
     16 O16         2.8904   -1.4186   -3.4791 O.2       1 UNK         0.0000 
     17 N17         2.8260   -0.7382   -1.3036 N.am      1 UNK         0.0000 
     18 H18         3.1796   -0.0399   -0.6373 H         1 UNK         0.0000 
     19 C19         1.6069   -1.4732   -1.0155 C.3       1 UNK         0.0000 
     20 C20         0.8693   -0.6773    0.0641 C.2       1 UNK         0.0000 
     21 N21        -0.1501    0.0864   -0.3825 N.am      1 UNK         0.0000 
     22 H22        -0.3522    0.0572   -1.3827 H         1 UNK         0.0000 
     23 O23         1.2370   -0.7078    1.2372 O.2       1 UNK         0.0000 
     24 H24         0.9954   -1.4957   -1.9258 H         1 UNK         0.0000 
     25 C25         1.8682   -2.9202   -0.5567 C.3       1 UNK         0.0000 
     26 H26         2.4141   -2.8975    0.3904 H         1 UNK         0.0000 
     27 H27         2.4933   -3.4037   -1.3140 H         1 UNK         0.0000 
     28 C28         0.5381   -3.6149   -0.4163 C.ar      1 UNK         0.0000 
     29 C29        -0.1158   -3.6939    0.8163 C.ar      1 UNK         0.0000 
     30 C30        -1.4594   -4.0644    0.8913 C.ar      1 UNK         0.0000 
     31 H31        -1.9871   -4.0704    1.8398 H         1 UNK         0.0000 
     32 H32         0.4106   -3.3999    1.7200 H         1 UNK         0.0000 
     33 C33        -0.1477   -4.0217   -1.5672 C.ar      1 UNK         0.0000 
     34 H34         0.3617   -4.0021   -2.5281 H         1 UNK         0.0000 
     35 C35        -1.4894   -4.3836   -1.5094 C.ar      1 UNK         0.0000 
     36 H36        -2.0420   -4.6333   -2.4099 H         1 UNK         0.0000 
     37 C37        -2.1476   -4.3433   -0.2829 C.ar      1 UNK         0.0000 
     38 O38        -3.5438   -4.4577   -0.2587 O.3       1 UNK         0.0000 
     39 C39        -4.0779   -3.2316   -0.6448 C.ar      1 UNK         0.0000 
     40 C40        -4.5436   -3.0688   -1.9465 C.ar      1 UNK         0.0000 
     41 C41        -4.8477   -1.7862   -2.3954 C.ar      1 UNK         0.0000 
     42 H42        -5.1492   -1.6220   -3.4254 H         1 UNK         0.0000 
     43 H43        -4.5960   -3.9261   -2.6093 H         1 UNK         0.0000 
     44 C44        -4.0336   -2.1605    0.2487 C.ar      1 UNK         0.0000 
     45 H45        -3.7101   -2.3249    1.2707 H         1 UNK         0.0000 
     46 C46        -4.3178   -0.8833   -0.2123 C.ar      1 UNK         0.0000 
     47 H47        -4.2321   -0.0393    0.4671 H         1 UNK         0.0000 
     48 C48        -4.6795   -0.6847   -1.5509 C.ar      1 UNK         0.0000 
     49 C49        -4.7756    0.6821   -2.1328 C.2       1 UNK         0.0000 
     50 O50        -5.4755    0.9245   -3.1002 O.2       1 UNK         0.0000 
     51 C51        -3.9252    1.7961   -1.5195 C.3       1 UNK         0.0000 
     52 H52        -3.8773    2.6033   -2.2555 H         1 UNK         0.0000 
     53 H53        -4.4300    2.1788   -0.6261 H         1 UNK         0.0000 
     54 N54        -2.5979    1.3619   -1.1271 N.am      1 UNK         0.0000 
     55 H55        -2.0602    0.8380   -1.8200 H         1 UNK         0.0000 
     56 C56        -2.1449    1.5463    0.1295 C.2       1 UNK         0.0000 
     57 O57        -2.8048    2.1259    0.9956 O.2       1 UNK         0.0000 
     58 C58        -0.7455    1.0670    0.5074 C.3       1 UNK         0.0000 
     59 H59        -0.8586    0.5888    1.4843 H         1 UNK         0.0000 
     60 C60         0.1851    2.2914    0.6950 C.3       1 UNK         0.0000 
     61 H61         1.1696    1.9027    0.9790 H         1 UNK         0.0000 
     62 H62        -0.2072    2.8874    1.5239 H         1 UNK         0.0000 
     63 C63         0.3060    3.1466   -0.5410 C.ar      1 UNK         0.0000 
     64 C64        -0.3966    4.3538   -0.6391 C.ar      1 UNK         0.0000 
     65 H65        -1.0370    4.6625    0.1836 H         1 UNK         0.0000 
     66 C66        -0.2749    5.1653   -1.7670 C.ar      1 UNK         0.0000 
     67 H67        -0.8239    6.1004   -1.8215 H         1 UNK         0.0000 
     68 C68         0.5621    4.7828   -2.8158 C.ar      1 UNK         0.0000 
     69 H69         0.6721    5.4194   -3.6881 H         1 UNK         0.0000 
     70 C70         1.2623    3.5792   -2.7322 C.ar      1 UNK         0.0000 
     71 H71         1.9253    3.2803   -3.5395 H         1 UNK         0.0000 
     72 C72         1.1269    2.7615   -1.6099 C.ar      1 UNK         0.0000 
     73 H73         1.6852    1.8293   -1.5448 H         1 UNK         0.0000 
     74 C74         5.9813    2.5038   -0.0889 C.3       1 UNK         0.0000 
     75 H75         6.3402    1.5381   -0.4472 H         1 UNK         0.0000 
     76 H76         6.0713    2.5667    0.9974 H         1 UNK         0.0000 
     77 H77         6.5270    3.3123   -0.5798 H         1 UNK         0.0000 
     78 S78         4.2379    2.6010   -0.5376 S.3       1 UNK         0.0000 
     79 C79         3.8332    4.1400    0.3098 C.3       1 UNK         0.0000 
     80 H80         2.7646    4.3106    0.1643 H         1 UNK         0.0000 
     81 H81         4.4073    4.9535   -0.1383 H         1 UNK         0.0000 
     82 H82         4.0664    4.0280    1.3707 H         1 UNK         0.0000 
     83 O83         3.5558    1.5008    0.2937 O.2       1 UNK         0.0000 
     84 C84        -0.1746   -1.8925   -4.8649 C.3       1 UNK         0.0000 
     85 H85         0.7390   -1.9698   -4.2681 H         1 UNK         0.0000 
     86 H86         0.0533   -1.9065   -5.9328 H         1 UNK         0.0000 
     87 H87        -0.8827   -2.6869   -4.6249 H         1 UNK         0.0000 
     88 S88        -0.9901   -0.3332   -4.4772 S.3       1 UNK         0.0000 
     89 C89         0.4247    0.7566   -4.7053 C.3       1 UNK         0.0000 
     90 H90         1.2273    0.4151   -4.0444 H         1 UNK         0.0000 
     91 H91         0.0990    1.7632   -4.4418 H         1 UNK         0.0000 
     92 H92         0.7375    0.7206   -5.7512 H         1 UNK         0.0000 
     93 O93        -1.2085   -0.3801   -2.9502 O.2       1 UNK         0.0000 
@<TRIPOS>BOND
     1    1    5 1    
     2    1    4 1    
     3    1    2 1    
     4    1    3 1    
     5    5    6 1    
     6    5   10 1    
     7    5   14 1    
     8    6    9 1    
     9    6    7 1    
    10    6    8 1    
    11   10   12 1    
    12   10   11 1    
    13   10   13 1    
    14   14   15 1    
    15   15   16 2    
    16   15   17 am   BACKBONE|DICT|INTERRES
    17   17   18 1    
    18   17   19 1    
    19   19   24 1    
    20   19   20 1    
    21   19   25 1    
    22   20   21 am   BACKBONE|DICT|INTERRES
    23   20   23 2    
    24   21   22 1    
    25   21   58 1    
    26   25   28 1    
    27   25   27 1    
    28   25   26 1    
    29   28   33 ar   
    30   28   29 ar   
    31   29   30 ar   
    32   29   32 1    
    33   30   37 ar   
    34   30   31 1    
    35   33   35 ar   
    36   33   34 1    
    37   35   36 1    
    38   35   37 ar   
    39   37   38 1    
    40   38   39 1    
    41   39   40 ar   
    42   39   44 ar   
    43   40   43 1    
    44   40   41 ar   
    45   41   42 1    
    46   41   48 ar   
    47   44   46 ar   
    48   44   45 1    
    49   46   48 ar   
    50   46   47 1    
    51   48   49 1    
    52   49   50 2    
    53   49   51 1    
    54   51   52 1    
    55   51   53 1    
    56   51   54 1    
    57   54   55 1    
    58   54   56 am   BACKBONE|DICT|INTERRES
    59   56   57 2    
    60   56   58 1    
    61   58   59 1    
    62   58   60 1    
    63   60   63 1    
    64   60   61 1    
    65   60   62 1    
    66   63   64 ar   
    67   63   72 ar   
    68   64   66 ar   
    69   64   65 1    
    70   66   67 1    
    71   66   68 ar   
    72   68   69 1    
    73   68   70 ar   
    74   70   71 1    
    75   70   72 ar   
    76   72   73 1    
    77   74   75 1    
    78   74   77 1    
    79   74   78 1    
    80   74   76 1    
    81   78   79 1    
    82   78   83 2    
    83   79   80 1    
    84   79   81 1    
    85   79   82 1    
    86   84   86 1    
    87   84   85 1    
    88   84   87 1    
    89   84   88 1    
    90   88   89 1    
    91   88   93 2    
    92   89   92 1    
    93   89   90 1    
    94   89   91 1    
@<TRIPOS>SUBSTRUCTURE
     1 UNK         1 GROUP             0       ****    0 ROOT    
