@<TRIPOS>MOLECULE
Cpd3-1
73   76    1
SMALL
USER_CHARGES


@<TRIPOS>ATOM
      1 N1         26.4369    3.4556    9.4244 N.am      1 UNK         0.0000 
      2 O2         27.4031    3.1626    6.3221 O.2       1 UNK         0.0000 
      3 C3         22.3962    0.2230   14.1095 C.ar      1 UNK         0.0000 
      4 N4         27.0997    1.5473   12.4985 N.am      1 UNK         0.0000 
      5 O5         27.9596    3.1295   13.8956 O.2       1 UNK         0.0000 
      6 C6         23.3920    0.8016   14.8861 C.ar      1 UNK         0.0000 
      7 N7         28.2736   -0.5334   13.9692 N.am      1 UNK         0.0000 
      8 O8         28.0290    3.8747   11.0064 O.2       1 UNK         0.0000 
      9 C9         22.2628    0.5651   12.7696 C.ar      1 UNK         0.0000 
     10 O10        26.2263   -0.8908   15.0492 O.2       1 UNK         0.0000 
     11 C11        24.2584    1.7343   14.3319 C.ar      1 UNK         0.0000 
     12 O12        32.6054    2.1182    9.9493 O.3       1 UNK         0.0000 
     13 C13        23.1178    1.4977   12.1970 C.ar      1 UNK         0.0000 
     14 C14        31.3570    2.6102   13.3484 C.ar      1 UNK         0.0000 
     15 C15        31.1427    0.2756   12.7451 C.ar      1 UNK         0.0000 
     16 C16        29.6741    1.9498    7.7672 C.ar      1 UNK         0.0000 
     17 C17        29.9540    4.2172    8.5703 C.ar      1 UNK         0.0000 
     18 C18        32.0279    2.8565   12.1566 C.ar      1 UNK         0.0000 
     19 C19        31.8017    0.5246   11.5453 C.ar      1 UNK         0.0000 
     20 C20        30.8669    1.5854    8.3860 C.ar      1 UNK         0.0000 
     21 C21        31.1523    3.8564    9.1731 C.ar      1 UNK         0.0000 
     22 C22        29.9673    1.1130   14.8343 C.3       1 UNK         0.0000 
     23 C23        26.8764    4.3436    8.3398 C.3       1 UNK         0.0000 
     24 C24        25.1176    3.0562   12.3345 C.3       1 UNK         0.0000 
     25 C25        30.8675    1.3306   13.6200 C.ar      1 UNK         0.0000 
     26 C26        24.1114    2.1201   12.9822 C.ar      1 UNK         0.0000 
     27 C27        29.1785    3.2489    7.9242 C.ar      1 UNK         0.0000 
     28 C28        32.1941    1.8261   11.2281 C.ar      1 UNK         0.0000 
     29 C29        31.5759    2.5267    9.1348 C.ar      1 UNK         0.0000 
     30 C30        27.8408    3.6118    7.3821 C.2       1 UNK         0.0000 
     31 C31        27.8198    1.9510   13.5677 C.2       1 UNK         0.0000 
     32 C32        27.0101    3.2941   10.6338 C.2       1 UNK         0.0000 
     33 C33        27.1321   -1.2584   14.2984 C.2       1 UNK         0.0000 
     34 C34        28.4803    0.8481   14.4506 C.3       1 UNK         0.0000 
     35 C35        26.2611    2.3341   11.5810 C.3       1 UNK         0.0000 
     36 H36        27.9623    0.9242   15.4098 H         1 UNK         0.0000 
     37 H37        25.7981    1.5865   10.9347 H         1 UNK         0.0000 
     38 H38        21.7306   -0.5067   14.5463 H         1 UNK         0.0000 
     39 H39        23.5014    0.5153   15.9217 H         1 UNK         0.0000 
     40 H40        21.4969    0.0974   12.1687 H         1 UNK         0.0000 
     41 H41        25.0445    2.1607   14.9379 H         1 UNK         0.0000 
     42 H42        23.0207    1.7432   11.1495 H         1 UNK         0.0000 
     43 H43        31.1615    3.4293   14.0252 H         1 UNK         0.0000 
     44 H44        30.7881   -0.7222   12.9569 H         1 UNK         0.0000 
     45 H45        29.1058    1.1984    7.2370 H         1 UNK         0.0000 
     46 H46        29.6152    5.2393    8.6596 H         1 UNK         0.0000 
     47 H47        32.3383    3.8630   11.9179 H         1 UNK         0.0000 
     48 H48        31.9362   -0.2742   10.8307 H         1 UNK         0.0000 
     49 H49        31.2007    0.5589    8.3461 H         1 UNK         0.0000 
     50 H50        31.7081    4.5914    9.7363 H         1 UNK         0.0000 
     51 H51        30.3674    0.2929   15.4329 H         1 UNK         0.0000 
     52 H52        30.0219    1.9904   15.4818 H         1 UNK         0.0000 
     53 H53        27.3314    5.2576    8.7239 H         1 UNK         0.0000 
     54 H54        25.9981    4.6869    7.7915 H         1 UNK         0.0000 
     55 H55        24.5720    3.7022   11.6447 H         1 UNK         0.0000 
     56 H56        25.5167    3.7220   13.1002 H         1 UNK         0.0000 
     57 H57        25.5891    2.9393    9.2383 H         1 UNK         0.0000 
     58 H58        27.0695    0.5540   12.3191 H         1 UNK         0.0000 
     59 H59        28.9321   -0.9156   13.3058 H         1 UNK         0.0000 
     60 O60        27.1602   -2.4412   13.6271 O.3       1 UNK         0.0000 
     61 C61        26.1033   -3.4208   13.6210 C.3       1 UNK         0.0000 
     62 C62        26.6195   -4.5362   12.6882 C.3       1 UNK         0.0000 
     63 H63        25.8991   -5.3504   12.5980 H         1 UNK         0.0000 
     64 H64        26.8145   -4.1588   11.6831 H         1 UNK         0.0000 
     65 H65        27.5533   -4.9646   13.0555 H         1 UNK         0.0000 
     66 C66        25.8660   -4.0042   15.0365 C.3       1 UNK         0.0000 
     67 H67        26.7960   -4.3687   15.4748 H         1 UNK         0.0000 
     68 H68        25.4532   -3.2667   15.7247 H         1 UNK         0.0000 
     69 H69        25.1676   -4.8415   15.0086 H         1 UNK         0.0000 
     70 C70        24.7931   -2.8322   13.0372 C.3       1 UNK         0.0000 
     71 H71        24.3566   -2.0724   13.6851 H         1 UNK         0.0000 
     72 H72        24.9663   -2.3651   12.0668 H         1 UNK         0.0000 
     73 H73        24.0370   -3.6059   12.8977 H         1 UNK         0.0000 
@<TRIPOS>BOND
     1    1   57 1    
     2    1   32 am   BACKBONE|DICT|INTERRES
     3    1   23 1    
     4    2   30 2    
     5    3   38 1    
     6    3    6 ar   
     7    3    9 ar   
     8    4   31 am   BACKBONE|DICT|INTERRES
     9    4   58 1    
    10    4   35 1    
    11    5   31 2    
    12    6   39 1    
    13    6   11 ar   
    14    7   33 am   BACKBONE|DICT|INTERRES
    15    7   34 1    
    16    7   59 1    
    17    8   32 2    
    18    9   40 1    
    19    9   13 ar   
    20   10   33 2    
    21   11   26 ar   
    22   11   41 1    
    23   12   28 1    
    24   12   29 1    
    25   13   26 ar   
    26   13   42 1    
    27   14   25 ar   
    28   14   18 ar   
    29   14   43 1    
    30   15   44 1    
    31   15   19 ar   
    32   15   25 ar   
    33   16   45 1    
    34   16   20 ar   
    35   16   27 ar   
    36   17   27 ar   
    37   17   21 ar   
    38   17   46 1    
    39   18   28 ar   
    40   18   47 1    
    41   19   48 1    
    42   19   28 ar   
    43   20   49 1    
    44   20   29 ar   
    45   21   29 ar   
    46   21   50 1    
    47   22   34 1    
    48   22   51 1    
    49   22   25 1    
    50   22   52 1    
    51   23   30 1    
    52   23   53 1    
    53   23   54 1    
    54   24   35 1    
    55   24   26 1    
    56   24   55 1    
    57   24   56 1    
    58   27   30 1    
    59   31   34 1    
    60   32   35 1    
    61   33   60 1    
    62   34   36 1    
    63   35   37 1    
    64   60   61 1    
    65   61   62 1    
    66   61   66 1    
    67   61   70 1    
    68   62   65 1    
    69   62   63 1    
    70   62   64 1    
    71   66   67 1    
    72   66   69 1    
    73   66   68 1    
    74   70   73 1    
    75   70   71 1    
    76   70   72 1    
@<TRIPOS>SUBSTRUCTURE
     1 UNK         1 GROUP             0       ****    0 ROOT    
@<TRIPOS>MOLECULE
Cpd3-2
73   76    1
SMALL
USER_CHARGES


@<TRIPOS>ATOM
      1 N1         26.7199    3.7664    9.4311 N.am      1 UNK         0.0000 
      2 O2         27.8860    4.8947    6.4883 O.2       1 UNK         0.0000 
      3 C3         27.6241    8.3039   10.2210 C.ar      1 UNK         0.0000 
      4 N4         27.6294    2.1311   12.6017 N.am      1 UNK         0.0000 
      5 O5         27.7475    3.0564   14.6763 O.2       1 UNK         0.0000 
      6 C6         26.6561    7.6933   11.0081 C.ar      1 UNK         0.0000 
      7 N7         28.2666   -0.3706   13.6161 N.am      1 UNK         0.0000 
      8 O8         26.7593    1.6133   10.1430 O.2       1 UNK         0.0000 
      9 C9         28.8249    7.6575    9.9576 C.ar      1 UNK         0.0000 
     10 O10        28.7071   -2.0262   15.2104 O.2       1 UNK         0.0000 
     11 C11        26.8732    6.4232   11.5258 C.ar      1 UNK         0.0000 
     12 O12        32.5027    2.0496    9.9442 O.3       1 UNK         0.0000 
     13 C13        29.0616    6.3881   10.4673 C.ar      1 UNK         0.0000 
     14 C14        31.1569    2.5787   13.3047 C.ar      1 UNK         0.0000 
     15 C15        31.3303    0.2032   12.8767 C.ar      1 UNK         0.0000 
     16 C16        29.2872    2.0529    8.1811 C.ar      1 UNK         0.0000 
     17 C17        30.3116    4.2346    7.9859 C.ar      1 UNK         0.0000 
     18 C18        31.7770    2.8428   12.0888 C.ar      1 UNK         0.0000 
     19 C19        31.9508    0.4669   11.6587 C.ar      1 UNK         0.0000 
     20 C20        30.4198    1.5796    8.8315 C.ar      1 UNK         0.0000 
     21 C21        31.4464    3.7605    8.6412 C.ar      1 UNK         0.0000 
     22 C22        29.9907    0.9881   14.8910 C.3       1 UNK         0.0000 
     23 C23        26.6053    3.5324    7.9850 C.3       1 UNK         0.0000 
     24 C24        28.3576    4.3673   11.8351 C.3       1 UNK         0.0000 
     25 C25        30.8759    1.2603   13.6713 C.ar      1 UNK         0.0000 
     26 C26        28.0692    5.7336   11.2278 C.ar      1 UNK         0.0000 
     27 C27        29.1970    3.4024    7.8252 C.ar      1 UNK         0.0000 
     28 C28        32.1190    1.7875   11.2394 C.ar      1 UNK         0.0000 
     29 C29        31.4770    2.4491    9.1161 C.ar      1 UNK         0.0000 
     30 C30        27.9174    3.9506    7.2789 C.2       1 UNK         0.0000 
     31 C31        27.9046    2.0956   13.9222 C.2       1 UNK         0.0000 
     32 C32        26.8693    2.8191   10.3764 C.2       1 UNK         0.0000 
     33 C33        28.4433   -1.6755   14.0584 C.2       1 UNK         0.0000 
     34 C34        28.4802    0.7784   14.5172 C.3       1 UNK         0.0000 
     35 C35        27.2208    3.2977   11.8088 C.3       1 UNK         0.0000 
     36 H36        27.9159    0.5848   15.4325 H         1 UNK         0.0000 
     37 H37        26.3132    3.6987   12.2606 H         1 UNK         0.0000 
     38 H38        27.4480    9.2927    9.8235 H         1 UNK         0.0000 
     39 H39        25.7332    8.2111   11.2237 H         1 UNK         0.0000 
     40 H40        29.5804    8.1466    9.3607 H         1 UNK         0.0000 
     41 H41        26.1177    5.9689   12.1491 H         1 UNK         0.0000 
     42 H42        30.0062    5.9031   10.2719 H         1 UNK         0.0000 
     43 H43        30.8227    3.4018   13.9195 H         1 UNK         0.0000 
     44 H44        31.1371   -0.8204   13.1628 H         1 UNK         0.0000 
     45 H45        28.4614    1.3756    8.0176 H         1 UNK         0.0000 
     46 H46        30.2783    5.2716    7.6826 H         1 UNK         0.0000 
     47 H47        31.9137    3.8657   11.7693 H         1 UNK         0.0000 
     48 H48        32.2240   -0.3502   11.0071 H         1 UNK         0.0000 
     49 H49        30.4471    0.5552    9.1728 H         1 UNK         0.0000 
     50 H50        32.2690    4.4309    8.8431 H         1 UNK         0.0000 
     51 H51        30.3794    0.1147   15.4164 H         1 UNK         0.0000 
     52 H52        30.0946    1.8070   15.6057 H         1 UNK         0.0000 
     53 H53        25.7620    4.1084    7.6016 H         1 UNK         0.0000 
     54 H54        26.3814    2.4922    7.7428 H         1 UNK         0.0000 
     55 H55        29.2260    3.9472   11.3255 H         1 UNK         0.0000 
     56 H56        28.6875    4.5668   12.8534 H         1 UNK         0.0000 
     57 H57        26.7680    4.7346    9.7155 H         1 UNK         0.0000 
     58 H58        27.7738    1.2890   12.0632 H         1 UNK         0.0000 
     59 H59        28.1499   -0.1934   12.6288 H         1 UNK         0.0000 
     60 O60        28.2943   -2.5128   12.9961 O.3       1 UNK         0.0000 
     61 C61        28.4723   -3.9418   13.0262 C.3       1 UNK         0.0000 
     62 C62        29.9229   -4.3188   13.4202 C.3       1 UNK         0.0000 
     63 H63        30.0994   -5.3894   13.3093 H         1 UNK         0.0000 
     64 H64        30.6501   -3.8006   12.7937 H         1 UNK         0.0000 
     65 H65        30.1501   -4.0624   14.4550 H         1 UNK         0.0000 
     66 C66        27.4465   -4.6201   13.9686 C.3       1 UNK         0.0000 
     67 H67        27.6196   -4.3726   15.0158 H         1 UNK         0.0000 
     68 H68        26.4273   -4.3139   13.7295 H         1 UNK         0.0000 
     69 H69        27.4894   -5.7069   13.8855 H         1 UNK         0.0000 
     70 C70        28.2066   -4.3912   11.5742 C.3       1 UNK         0.0000 
     71 H71        27.1984   -4.1266   11.2516 H         1 UNK         0.0000 
     72 H72        28.8996   -3.9190   10.8759 H         1 UNK         0.0000 
     73 H73        28.3134   -5.4709   11.4613 H         1 UNK         0.0000 
@<TRIPOS>BOND
     1    1   32 am   BACKBONE|DICT|INTERRES
     2    1   23 1    
     3    1   57 1    
     4    2   30 2    
     5    3    6 ar   
     6    3    9 ar   
     7    3   38 1    
     8    4   58 1    
     9    4   31 am   BACKBONE|DICT|INTERRES
    10    4   35 1    
    11    5   31 2    
    12    6   39 1    
    13    6   11 ar   
    14    7   33 am   BACKBONE|DICT|INTERRES
    15    7   34 1    
    16    7   59 1    
    17    8   32 2    
    18    9   13 ar   
    19    9   40 1    
    20   10   33 2    
    21   11   41 1    
    22   11   26 ar   
    23   12   28 1    
    24   12   29 1    
    25   13   26 ar   
    26   13   42 1    
    27   14   25 ar   
    28   14   18 ar   
    29   14   43 1    
    30   15   44 1    
    31   15   19 ar   
    32   15   25 ar   
    33   16   20 ar   
    34   16   45 1    
    35   16   27 ar   
    36   17   21 ar   
    37   17   27 ar   
    38   17   46 1    
    39   18   28 ar   
    40   18   47 1    
    41   19   48 1    
    42   19   28 ar   
    43   20   49 1    
    44   20   29 ar   
    45   21   29 ar   
    46   21   50 1    
    47   22   34 1    
    48   22   51 1    
    49   22   25 1    
    50   22   52 1    
    51   23   54 1    
    52   23   30 1    
    53   23   53 1    
    54   24   56 1    
    55   24   35 1    
    56   24   26 1    
    57   24   55 1    
    58   27   30 1    
    59   31   34 1    
    60   32   35 1    
    61   33   60 1    
    62   34   36 1    
    63   35   37 1    
    64   60   61 1    
    65   61   62 1    
    66   61   66 1    
    67   61   70 1    
    68   62   65 1    
    69   62   63 1    
    70   62   64 1    
    71   66   67 1    
    72   66   69 1    
    73   66   68 1    
    74   70   73 1    
    75   70   71 1    
    76   70   72 1    
@<TRIPOS>SUBSTRUCTURE
     1 UNK         1 GROUP             0       ****    0 ROOT    
@<TRIPOS>MOLECULE
Cpd3-3-MRC
73   76    1
SMALL
USER_CHARGES


@<TRIPOS>ATOM
      1 N1         26.7151    3.7831    9.4200 N.am      1 UNK         0.0000 
      2 O2         27.8912    4.8693    6.4634 O.2       1 UNK         0.0000 
      3 C3         27.6117    8.3243   10.1966 C.ar      1 UNK         0.0000 
      4 N4         27.6163    2.1574   12.5887 N.am      1 UNK         0.0000 
      5 O5         27.7800    3.0736   14.6671 O.2       1 UNK         0.0000 
      6 C6         26.6498    7.7208   10.9966 C.ar      1 UNK         0.0000 
      7 N7         28.2994   -0.3805   13.5892 N.am      1 UNK         0.0000 
      8 O8         26.6713    1.6388   10.1585 O.2       1 UNK         0.0000 
      9 C9         28.8063    7.6712    9.9218 C.ar      1 UNK         0.0000 
     10 O10        26.1078   -0.8452   14.2681 O.2       1 UNK         0.0000 
     11 C11        26.8666    6.4514   11.5161 C.ar      1 UNK         0.0000 
     12 O12        32.5068    2.0643    9.9562 O.3       1 UNK         0.0000 
     13 C13        29.0428    6.4025   10.4331 C.ar      1 UNK         0.0000 
     14 C14        31.1761    2.5523   13.3282 C.ar      1 UNK         0.0000 
     15 C15        31.3548    0.1817   12.8725 C.ar      1 UNK         0.0000 
     16 C16        29.2734    2.0548    8.2201 C.ar      1 UNK         0.0000 
     17 C17        30.3144    4.2227    7.9678 C.ar      1 UNK         0.0000 
     18 C18        31.7906    2.8320   12.1129 C.ar      1 UNK         0.0000 
     19 C19        31.9736    0.4612   11.6572 C.ar      1 UNK         0.0000 
     20 C20        30.4059    1.5881    8.8753 C.ar      1 UNK         0.0000 
     21 C21        31.4489    3.7551    8.6287 C.ar      1 UNK         0.0000 
     22 C22        29.9994    0.9379   14.8823 C.3       1 UNK         0.0000 
     23 C23        26.5996    3.5368    7.9765 C.3       1 UNK         0.0000 
     24 C24        28.3443    4.3893   11.8153 C.3       1 UNK         0.0000 
     25 C25        30.8994    1.2287   13.6793 C.ar      1 UNK         0.0000 
     26 C26        28.0562    5.7555   11.2075 C.ar      1 UNK         0.0000 
     27 C27        29.1927    3.3955    7.8301 C.ar      1 UNK         0.0000 
     28 C28        32.1337    1.7869   11.2513 C.ar      1 UNK         0.0000 
     29 C29        31.4728    2.4547    9.1331 C.ar      1 UNK         0.0000 
     30 C30        27.9165    3.9392    7.2703 C.2       1 UNK         0.0000 
     31 C31        27.9155    2.1183   13.9023 C.2       1 UNK         0.0000 
     32 C32        26.8287    2.8424   10.3767 C.2       1 UNK         0.0000 
     33 C33        27.0984   -1.0803   13.5730 C.2       1 UNK         0.0000 
     34 C34        28.5031    0.7920   14.4638 C.3       1 UNK         0.0000 
     35 C35        27.2020    3.3249   11.8024 C.3       1 UNK         0.0000 
     36 H36        27.9659    0.5970   15.3953 H         1 UNK         0.0000 
     37 H37        26.3022    3.7295   12.2664 H         1 UNK         0.0000 
     38 H38        27.4357    9.3125    9.7977 H         1 UNK         0.0000 
     39 H39        25.7316    8.2435   11.2207 H         1 UNK         0.0000 
     40 H40        29.5572    8.1546    9.3143 H         1 UNK         0.0000 
     41 H41        26.1160    6.0025   12.1491 H         1 UNK         0.0000 
     42 H42        29.9827    5.9121   10.2283 H         1 UNK         0.0000 
     43 H43        30.8370    3.3673   13.9512 H         1 UNK         0.0000 
     44 H44        31.1570   -0.8449   13.1449 H         1 UNK         0.0000 
     45 H45        28.4418    1.3801    8.0766 H         1 UNK         0.0000 
     46 H46        30.2884    5.2521    7.6391 H         1 UNK         0.0000 
     47 H47        31.9202    3.8586   11.8028 H         1 UNK         0.0000 
     48 H48        32.2463   -0.3474   10.9948 H         1 UNK         0.0000 
     49 H49        30.4268    0.5709    9.2379 H         1 UNK         0.0000 
     50 H50        32.2785    4.4230    8.8090 H         1 UNK         0.0000 
     51 H51        30.3441    0.0280   15.3766 H         1 UNK         0.0000 
     52 H52        30.1148    1.7302   15.6245 H         1 UNK         0.0000 
     53 H53        25.7613    4.1163    7.5871 H         1 UNK         0.0000 
     54 H54        26.3696    2.4959    7.7427 H         1 UNK         0.0000 
     55 H55        29.2076    3.9638   11.3010 H         1 UNK         0.0000 
     56 H56        28.6833    4.5904   12.8303 H         1 UNK         0.0000 
     57 H57        26.7980    4.7521    9.6931 H         1 UNK         0.0000 
     58 H58        27.7473    1.3145   12.0478 H         1 UNK         0.0000 
     59 H59        29.0328   -0.6329   12.9425 H         1 UNK         0.0000 
     60 O60        27.1846   -2.0597   12.6323 O.3       1 UNK         0.0000 
     61 C61        26.1123   -2.9371   12.2383 C.3       1 UNK         0.0000 
     62 C62        25.6454   -3.8266   13.4177 C.3       1 UNK         0.0000 
     63 H63        24.9354   -4.5852   13.0855 H         1 UNK         0.0000 
     64 H64        26.4867   -4.3459   13.8785 H         1 UNK         0.0000 
     65 H65        25.1540   -3.2509   14.2018 H         1 UNK         0.0000 
     66 C66        24.9263   -2.1383   11.6406 C.3       1 UNK         0.0000 
     67 H67        24.4250   -1.5224   12.3871 H         1 UNK         0.0000 
     68 H68        25.2603   -1.4704   10.8452 H         1 UNK         0.0000 
     69 H69        24.1735   -2.8031   11.2153 H         1 UNK         0.0000 
     70 C70        26.7304   -3.8278   11.1404 C.3       1 UNK         0.0000 
     71 H71        27.0886   -3.2339   10.2980 H         1 UNK         0.0000 
     72 H72        27.5834   -4.3941   11.5177 H         1 UNK         0.0000 
     73 H73        26.0075   -4.5458   10.7507 H         1 UNK         0.0000 
@<TRIPOS>BOND
     1    1   32 am   BACKBONE|DICT|INTERRES
     2    1   23 1    
     3    1   57 1    
     4    2   30 2    
     5    3    6 ar   
     6    3    9 ar   
     7    3   38 1    
     8    4   58 1    
     9    4   31 am   BACKBONE|DICT|INTERRES
    10    4   35 1    
    11    5   31 2    
    12    6   39 1    
    13    6   11 ar   
    14    7   33 am   BACKBONE|DICT|INTERRES
    15    7   34 1    
    16    7   59 1    
    17    8   32 2    
    18    9   13 ar   
    19    9   40 1    
    20   10   33 2    
    21   11   41 1    
    22   11   26 ar   
    23   12   28 1    
    24   12   29 1    
    25   13   26 ar   
    26   13   42 1    
    27   14   25 ar   
    28   14   18 ar   
    29   14   43 1    
    30   15   44 1    
    31   15   19 ar   
    32   15   25 ar   
    33   16   20 ar   
    34   16   45 1    
    35   16   27 ar   
    36   17   21 ar   
    37   17   27 ar   
    38   17   46 1    
    39   18   28 ar   
    40   18   47 1    
    41   19   48 1    
    42   19   28 ar   
    43   20   49 1    
    44   20   29 ar   
    45   21   29 ar   
    46   21   50 1    
    47   22   34 1    
    48   22   51 1    
    49   22   25 1    
    50   22   52 1    
    51   23   54 1    
    52   23   30 1    
    53   23   53 1    
    54   24   56 1    
    55   24   35 1    
    56   24   26 1    
    57   24   55 1    
    58   27   30 1    
    59   31   34 1    
    60   32   35 1    
    61   33   60 1    
    62   34   36 1    
    63   35   37 1    
    64   60   61 1    
    65   61   62 1    
    66   61   66 1    
    67   61   70 1    
    68   62   65 1    
    69   62   64 1    
    70   62   63 1    
    71   66   67 1    
    72   66   69 1    
    73   66   68 1    
    74   70   72 1    
    75   70   73 1    
    76   70   71 1    
@<TRIPOS>SUBSTRUCTURE
     1 UNK         1 GROUP             0       ****    0 ROOT    
@<TRIPOS>MOLECULE
Cpd3-4
73   76    1
SMALL
USER_CHARGES


@<TRIPOS>ATOM
      1 N1         26.7129    3.7710    9.4289 N.am      1 UNK         0.0000 
      2 O2         27.8844    4.8811    6.4823 O.2       1 UNK         0.0000 
      3 C3         27.6187    8.3098   10.1868 C.ar      1 UNK         0.0000 
      4 N4         27.6130    2.1533   12.6060 N.am      1 UNK         0.0000 
      5 O5         27.7711    3.0603   14.6873 O.2       1 UNK         0.0000 
      6 C6         26.6465    7.7066   10.9745 C.ar      1 UNK         0.0000 
      7 N7         28.2528   -0.3432   13.5554 N.am      1 UNK         0.0000 
      8 O8         26.7704    1.6221   10.1495 O.2       1 UNK         0.0000 
      9 C9         28.8207    7.6608    9.9356 C.ar      1 UNK         0.0000 
     10 O10        28.7139   -2.0668   15.0559 O.2       1 UNK         0.0000 
     11 C11        26.8606    6.4413   11.5051 C.ar      1 UNK         0.0000 
     12 O12        32.5068    2.0575    9.9466 O.3       1 UNK         0.0000 
     13 C13        29.0544    6.3961   10.4582 C.ar      1 UNK         0.0000 
     14 C14        31.1426    2.5696   13.3019 C.ar      1 UNK         0.0000 
     15 C15        31.3499    0.1969   12.8753 C.ar      1 UNK         0.0000 
     16 C16        30.3073    4.2331    7.9875 C.ar      1 UNK         0.0000 
     17 C17        29.2888    2.0487    8.1878 C.ar      1 UNK         0.0000 
     18 C18        31.7653    2.8418   12.0893 C.ar      1 UNK         0.0000 
     19 C19        31.9732    0.4686   11.6604 C.ar      1 UNK         0.0000 
     20 C20        31.4438    3.7637    8.6429 C.ar      1 UNK         0.0000 
     21 C21        30.4241    1.5799    8.8369 C.ar      1 UNK         0.0000 
     22 C22        29.9833    0.9628   14.8775 C.3       1 UNK         0.0000 
     23 C23        26.6028    3.5264    7.9841 C.3       1 UNK         0.0000 
     24 C24        28.3424    4.3881   11.8406 C.3       1 UNK         0.0000 
     25 C25        30.8755    1.2477   13.6660 C.ar      1 UNK         0.0000 
     26 C26        28.0582    5.7490   11.2201 C.ar      1 UNK         0.0000 
     27 C27        29.1950    3.3974    7.8286 C.ar      1 UNK         0.0000 
     28 C28        32.1244    1.7910   11.2412 C.ar      1 UNK         0.0000 
     29 C29        31.4789    2.4531    9.1193 C.ar      1 UNK         0.0000 
     30 C30        27.9155    3.9414    7.2779 C.2       1 UNK         0.0000 
     31 C31        27.9058    2.1046   13.9226 C.2       1 UNK         0.0000 
     32 C32        26.8672    2.8297   10.3793 C.2       1 UNK         0.0000 
     33 C33        28.4208   -1.6735   13.9276 C.2       1 UNK         0.0000 
     34 C34        28.4731    0.7721   14.4938 C.3       1 UNK         0.0000 
     35 C35        27.2068    3.3181   11.8119 C.3       1 UNK         0.0000 
     36 H36        27.9034    0.5545   15.3999 H         1 UNK         0.0000 
     37 H37        26.2961    3.7183   12.2581 H         1 UNK         0.0000 
     38 H38        27.4448    9.2948    9.7792 H         1 UNK         0.0000 
     39 H39        25.7225    8.2265   11.1803 H         1 UNK         0.0000 
     40 H40        29.5792    8.1440    9.3378 H         1 UNK         0.0000 
     41 H41        26.1018    5.9927   12.1285 H         1 UNK         0.0000 
     42 H42        29.9999    5.9089   10.2719 H         1 UNK         0.0000 
     43 H43        30.7940    3.3882   13.9148 H         1 UNK         0.0000 
     44 H44        31.1669   -0.8289   13.1595 H         1 UNK         0.0000 
     45 H45        30.2711    5.2692    7.6818 H         1 UNK         0.0000 
     46 H46        28.4650    1.3686    8.0261 H         1 UNK         0.0000 
     47 H47        31.8897    3.8663   11.7703 H         1 UNK         0.0000 
     48 H48        32.2588   -0.3450   11.0098 H         1 UNK         0.0000 
     49 H49        32.2645    4.4368    8.8432 H         1 UNK         0.0000 
     50 H50        30.4565    0.5559    9.1783 H         1 UNK         0.0000 
     51 H51        30.3605    0.0760   15.3884 H         1 UNK         0.0000 
     52 H52        30.0923    1.7680   15.6069 H         1 UNK         0.0000 
     53 H53        25.7594    4.0980    7.5943 H         1 UNK         0.0000 
     54 H54        26.3809    2.4841    7.7485 H         1 UNK         0.0000 
     55 H55        29.2156    3.9650   11.3419 H         1 UNK         0.0000 
     56 H56        28.6624    4.5949   12.8608 H         1 UNK         0.0000 
     57 H57        26.7511    4.7411    9.7077 H         1 UNK         0.0000 
     58 H58        27.7418    1.3101   12.0651 H         1 UNK         0.0000 
     59 H59        28.1180   -0.1213   12.5795 H         1 UNK         0.0000 
     60 O60        28.2411   -2.5627   12.8894 O.3       1 UNK         0.0000 
     61 C61        27.8467   -2.3047   11.5199 C.3       1 UNK         0.0000 
     62 C62        26.4239   -1.6947   11.4373 C.3       1 UNK         0.0000 
     63 H63        26.0681   -1.6603   10.4067 H         1 UNK         0.0000 
     64 H64        25.7075   -2.2851   12.0096 H         1 UNK         0.0000 
     65 H65        26.3769   -0.6759   11.8192 H         1 UNK         0.0000 
     66 C66        28.8769   -1.4295   10.7594 C.3       1 UNK         0.0000 
     67 H67        28.8685   -0.3874   11.0764 H         1 UNK         0.0000 
     68 H68        29.8918   -1.8031   10.8992 H         1 UNK         0.0000 
     69 H69        28.6779   -1.4267    9.6870 H         1 UNK         0.0000 
     70 C70        27.8232   -3.7091   10.8796 C.3       1 UNK         0.0000 
     71 H71        28.8031   -4.1871   10.9271 H         1 UNK         0.0000 
     72 H72        27.1204   -4.3705   11.3889 H         1 UNK         0.0000 
     73 H73        27.5304   -3.6689    9.8295 H         1 UNK         0.0000 
@<TRIPOS>BOND
     1    1   32 am   BACKBONE|DICT|INTERRES
     2    1   23 1    
     3    1   57 1    
     4    2   30 2    
     5    3    6 ar   
     6    3    9 ar   
     7    3   38 1    
     8    4   58 1    
     9    4   31 am   BACKBONE|DICT|INTERRES
    10    4   35 1    
    11    5   31 2    
    12    6   39 1    
    13    6   11 ar   
    14    7   33 am   BACKBONE|DICT|INTERRES
    15    7   34 1    
    16    7   59 1    
    17    8   32 2    
    18    9   13 ar   
    19    9   40 1    
    20   10   33 2    
    21   11   41 1    
    22   11   26 ar   
    23   12   28 1    
    24   12   29 1    
    25   13   26 ar   
    26   13   42 1    
    27   14   25 ar   
    28   14   18 ar   
    29   14   43 1    
    30   15   44 1    
    31   15   19 ar   
    32   15   25 ar   
    33   16   20 ar   
    34   16   27 ar   
    35   16   45 1    
    36   17   21 ar   
    37   17   46 1    
    38   17   27 ar   
    39   18   28 ar   
    40   18   47 1    
    41   19   48 1    
    42   19   28 ar   
    43   20   29 ar   
    44   20   49 1    
    45   21   50 1    
    46   21   29 ar   
    47   22   34 1    
    48   22   51 1    
    49   22   25 1    
    50   22   52 1    
    51   23   54 1    
    52   23   30 1    
    53   23   53 1    
    54   24   56 1    
    55   24   35 1    
    56   24   26 1    
    57   24   55 1    
    58   27   30 1    
    59   31   34 1    
    60   32   35 1    
    61   33   60 1    
    62   34   36 1    
    63   35   37 1    
    64   60   61 1    
    65   61   70 1    
    66   61   62 1    
    67   61   66 1    
    68   62   64 1    
    69   62   63 1    
    70   62   65 1    
    71   66   67 1    
    72   66   68 1    
    73   66   69 1    
    74   70   71 1    
    75   70   72 1    
    76   70   73 1    
@<TRIPOS>SUBSTRUCTURE
     1 UNK         1 GROUP             0       ****    0 ROOT    
@<TRIPOS>MOLECULE
Cpd3-5-MEC
73   76    1
SMALL
USER_CHARGES


@<TRIPOS>ATOM
      1 N1         26.6445    3.2333    9.3568 N.am      1 UNK         0.0000 
      2 O2         27.5266    3.1145    6.1154 O.2       1 UNK         0.0000 
      3 C3         22.2613    2.4576    9.0095 C.ar      1 UNK         0.0000 
      4 N4         27.5309    2.6884   12.8497 N.am      1 UNK         0.0000 
      5 O5         27.3971    0.5668   13.6671 O.2       1 UNK         0.0000 
      6 C6         22.8662    1.2772    9.4233 C.ar      1 UNK         0.0000 
      7 N7         28.0361    2.0287   16.1323 N.am      1 UNK         0.0000 
      8 O8         27.3034    4.7152   10.9603 O.2       1 UNK         0.0000 
      9 C9         22.5698    3.6611    9.6313 C.ar      1 UNK         0.0000 
     10 O10        29.5433    3.2811   17.4119 O.2       1 UNK         0.0000 
     11 C11        23.7790    1.2882   10.4698 C.ar      1 UNK         0.0000 
     12 O12        32.5762    2.0779    9.9447 O.3       1 UNK         0.0000 
     13 C13        23.4793    3.6936   10.6800 C.ar      1 UNK         0.0000 
     14 C14        31.6881    2.4463   13.4719 C.ar      1 UNK         0.0000 
     15 C15        30.8110    0.3476   12.6390 C.ar      1 UNK         0.0000 
     16 C16        29.7766    4.1047    8.7411 C.ar      1 UNK         0.0000 
     17 C17        29.8859    2.0499    7.4669 C.ar      1 UNK         0.0000 
     18 C18        32.3280    2.6629   12.2554 C.ar      1 UNK         0.0000 
     19 C19        31.4469    0.5657   11.4224 C.ar      1 UNK         0.0000 
     20 C20        30.9518    3.7607    9.3958 C.ar      1 UNK         0.0000 
     21 C21        31.0613    1.7024    8.1286 C.ar      1 UNK         0.0000 
     22 C22        30.0417    1.1669   14.9033 C.3       1 UNK         0.0000 
     23 C23        26.7829    4.0889    8.1702 C.3       1 UNK         0.0000 
     24 C24        25.1545    2.5305   12.2054 C.3       1 UNK         0.0000 
     25 C25        30.8912    1.3120   13.6457 C.ar      1 UNK         0.0000 
     26 C26        24.0765    2.4973   11.1335 C.ar      1 UNK         0.0000 
     27 C27        29.2018    3.2186    7.8238 C.ar      1 UNK         0.0000 
     28 C28        32.1611    1.7487   11.2138 C.ar      1 UNK         0.0000 
     29 C29        31.5617    2.5310    9.1332 C.ar      1 UNK         0.0000 
     30 C30        27.8660    3.5210    7.2276 C.2       1 UNK         0.0000 
     31 C31        27.8269    1.7205   13.7377 C.2       1 UNK         0.0000 
     32 C32        26.8999    3.5999   10.6278 C.2       1 UNK         0.0000 
     33 C33        28.5129    2.6133   17.2997 C.2       1 UNK         0.0000 
     34 C34        28.7964    2.1127   14.8793 C.3       1 UNK         0.0000 
     35 C35        26.6241    2.5352   11.7074 C.3       1 UNK         0.0000 
     36 H36        29.1272    3.1452   14.7348 H         1 UNK         0.0000 
     37 H37        26.8307    1.5671   11.2459 H         1 UNK         0.0000 
     38 H38        21.5555    2.4412    8.1922 H         1 UNK         0.0000 
     39 H39        22.6323    0.3488    8.9235 H         1 UNK         0.0000 
     40 H40        22.1072    4.5761    9.2920 H         1 UNK         0.0000 
     41 H41        24.2613    0.3700   10.7719 H         1 UNK         0.0000 
     42 H42        23.7303    4.6366   11.1432 H         1 UNK         0.0000 
     43 H43        31.7594    3.1894   14.2531 H         1 UNK         0.0000 
     44 H44        30.2021   -0.5350   12.7710 H         1 UNK         0.0000 
     45 H45        29.2940    5.0364    8.9987 H         1 UNK         0.0000 
     46 H46        29.4773    1.3681    6.7343 H         1 UNK         0.0000 
     47 H47        32.8816    3.5765   12.0946 H         1 UNK         0.0000 
     48 H48        31.3196   -0.1430   10.6172 H         1 UNK         0.0000 
     49 H49        31.3467    4.4154   10.1586 H         1 UNK         0.0000 
     50 H50        31.5390    0.7575    7.9149 H         1 UNK         0.0000 
     51 H51        29.7388    0.1260   15.0364 H         1 UNK         0.0000 
     52 H52        30.6779    1.3873   15.7617 H         1 UNK         0.0000 
     53 H53        27.0312    5.1219    8.4199 H         1 UNK         0.0000 
     54 H54        25.8187    4.1391    7.6620 H         1 UNK         0.0000 
     55 H55        24.9793    3.3949   12.8481 H         1 UNK         0.0000 
     56 H56        24.9968    1.6567   12.8387 H         1 UNK         0.0000 
     57 H57        26.2804    2.3059    9.1911 H         1 UNK         0.0000 
     58 H58        27.9378    3.6057   12.9645 H         1 UNK         0.0000 
     59 H59        27.2241    1.4293   16.1684 H         1 UNK         0.0000 
     60 O60        27.6491    2.3257   18.3121 O.3       1 UNK         0.0000 
     61 C61        27.7952    2.7486   19.6819 C.3       1 UNK         0.0000 
     62 C62        26.5637    2.1574   20.3994 C.3       1 UNK         0.0000 
     63 H63        26.5562    2.4108   21.4604 H         1 UNK         0.0000 
     64 H64        25.6327    2.5284   19.9678 H         1 UNK         0.0000 
     65 H65        26.5400    1.0692   20.3228 H         1 UNK         0.0000 
     66 C66        29.0841    2.1689   20.3175 C.3       1 UNK         0.0000 
     67 H67        29.1365    1.0870   20.1889 H         1 UNK         0.0000 
     68 H68        29.9880    2.5892   19.8771 H         1 UNK         0.0000 
     69 H69        29.1252    2.3731   21.3882 H         1 UNK         0.0000 
     70 C70        27.7646    4.2931   19.8020 C.3       1 UNK         0.0000 
     71 H71        28.6388    4.7608   19.3494 H         1 UNK         0.0000 
     72 H72        26.8853    4.7107   19.3099 H         1 UNK         0.0000 
     73 H73        27.7365    4.6097   20.8454 H         1 UNK         0.0000 
@<TRIPOS>BOND
     1    1   32 am   BACKBONE|DICT|INTERRES
     2    1   23 1    
     3    1   57 1    
     4    2   30 2    
     5    3    6 ar   
     6    3    9 ar   
     7    3   38 1    
     8    4   58 1    
     9    4   31 am   BACKBONE|DICT|INTERRES
    10    4   35 1    
    11    5   31 2    
    12    6   11 ar   
    13    6   39 1    
    14    7   59 1    
    15    7   33 am   BACKBONE|DICT|INTERRES
    16    7   34 1    
    17    8   32 2    
    18    9   13 ar   
    19    9   40 1    
    20   10   33 2    
    21   11   41 1    
    22   11   26 ar   
    23   12   28 1    
    24   12   29 1    
    25   13   26 ar   
    26   13   42 1    
    27   14   25 ar   
    28   14   43 1    
    29   14   18 ar   
    30   15   44 1    
    31   15   25 ar   
    32   15   19 ar   
    33   16   45 1    
    34   16   20 ar   
    35   16   27 ar   
    36   17   27 ar   
    37   17   21 ar   
    38   17   46 1    
    39   18   28 ar   
    40   18   47 1    
    41   19   28 ar   
    42   19   48 1    
    43   20   49 1    
    44   20   29 ar   
    45   21   29 ar   
    46   21   50 1    
    47   22   51 1    
    48   22   52 1    
    49   22   25 1    
    50   22   34 1    
    51   23   53 1    
    52   23   30 1    
    53   23   54 1    
    54   24   56 1    
    55   24   55 1    
    56   24   26 1    
    57   24   35 1    
    58   27   30 1    
    59   31   34 1    
    60   32   35 1    
    61   33   60 1    
    62   34   36 1    
    63   35   37 1    
    64   60   61 1    
    65   61   70 1    
    66   61   66 1    
    67   61   62 1    
    68   62   63 1    
    69   62   64 1    
    70   62   65 1    
    71   66   69 1    
    72   66   67 1    
    73   66   68 1    
    74   70   73 1    
    75   70   71 1    
    76   70   72 1    
@<TRIPOS>SUBSTRUCTURE
     1 UNK         1 GROUP             0       ****    0 ROOT    
@<TRIPOS>MOLECULE
Cpd3-6
73   76    1
SMALL
USER_CHARGES


@<TRIPOS>ATOM
      1 N1         26.9640    2.8264    9.6887 N.am      1 UNK         0.0000 
      2 O2         27.7075    4.6311    6.9402 O.2       1 UNK         0.0000 
      3 C3         26.8358    8.5642   10.3915 C.ar      1 UNK         0.0000 
      4 N4         27.3371    2.3697   12.4740 N.am      1 UNK         0.0000 
      5 O5         27.9509    2.9265   14.5872 O.2       1 UNK         0.0000 
      6 C6         26.3371    8.2174   11.6412 C.ar      1 UNK         0.0000 
      7 N7         28.0537   -0.4767   13.1064 N.am      1 UNK         0.0000 
      8 O8         25.3625    4.3403   10.2548 O.2       1 UNK         0.0000 
      9 C9         27.6974    7.7085    9.7166 C.ar      1 UNK         0.0000 
     10 O10        28.7794    0.3260   11.0219 O.2       1 UNK         0.0000 
     11 C11        26.7030    7.0148   12.2319 C.ar      1 UNK         0.0000 
     12 O12        32.7922    2.1285    9.9549 O.3       1 UNK         0.0000 
     13 C13        28.0759    6.5031   10.2915 C.ar      1 UNK         0.0000 
     14 C14        31.1433    2.3685   13.2022 C.ar      1 UNK         0.0000 
     15 C15        31.5058    0.0375   12.6600 C.ar      1 UNK         0.0000 
     16 C16        30.3071    4.1607    8.2046 C.ar      1 UNK         0.0000 
     17 C17        29.6376    1.8372    8.1390 C.ar      1 UNK         0.0000 
     18 C18        31.8756    2.7437   12.0828 C.ar      1 UNK         0.0000 
     19 C19        32.2408    0.4127   11.5383 C.ar      1 UNK         0.0000 
     20 C20        31.5169    3.7963    8.7922 C.ar      1 UNK         0.0000 
     21 C21        30.8535    1.4732    8.7018 C.ar      1 UNK         0.0000 
     22 C22        29.8781    0.6199   14.5173 C.3       1 UNK         0.0000 
     23 C23        26.7737    2.8374    8.2301 C.3       1 UNK         0.0000 
     24 C24        27.9290    4.7894   12.1701 C.3       1 UNK         0.0000 
     25 C25        30.8945    1.0162   13.4490 C.ar      1 UNK         0.0000 
     26 C26        27.6040    6.1511   11.5736 C.ar      1 UNK         0.0000 
     27 C27        29.3260    3.1898    7.9663 C.ar      1 UNK         0.0000 
     28 C28        32.3618    1.7653   11.2117 C.ar      1 UNK         0.0000 
     29 C29        31.7569    2.4584    9.1078 C.ar      1 UNK         0.0000 
     30 C30        27.9449    3.5915    7.5566 C.2       1 UNK         0.0000 
     31 C31        27.8719    2.0958   13.6814 C.2       1 UNK         0.0000 
     32 C32        26.3177    3.6253   10.5588 C.2       1 UNK         0.0000 
     33 C33        28.2377   -0.5261   11.7278 C.2       1 UNK         0.0000 
     34 C34        28.4117    0.6632   13.9785 C.3       1 UNK         0.0000 
     35 C35        26.8499    3.6763   12.0066 C.3       1 UNK         0.0000 
     36 H36        27.7978    0.4042   14.8428 H         1 UNK         0.0000 
     37 H37        25.9992    3.9381   12.6383 H         1 UNK         0.0000 
     38 H38        26.5429    9.4992    9.9372 H         1 UNK         0.0000 
     39 H39        25.6553    8.8814   12.1516 H         1 UNK         0.0000 
     40 H40        28.0678    7.9773    8.7383 H         1 UNK         0.0000 
     41 H41        26.2951    6.7428   13.1945 H         1 UNK         0.0000 
     42 H42        28.7290    5.8339    9.7549 H         1 UNK         0.0000 
     43 H43        30.6945    3.1318   13.8210 H         1 UNK         0.0000 
     44 H44        31.3318   -1.0106   12.8555 H         1 UNK         0.0000 
     45 H45        30.1063    5.2084    8.0315 H         1 UNK         0.0000 
     46 H46        28.9219    1.0621    7.9090 H         1 UNK         0.0000 
     47 H47        31.9741    3.7909   11.8367 H         1 UNK         0.0000 
     48 H48        32.6197   -0.3451   10.8683 H         1 UNK         0.0000 
     49 H49        32.2223    4.5598    9.0859 H         1 UNK         0.0000 
     50 H50        31.0507    0.4344    8.9183 H         1 UNK         0.0000 
     51 H51        30.1114   -0.3780   14.8927 H         1 UNK         0.0000 
     52 H52        29.9951    1.2829   15.3767 H         1 UNK         0.0000 
     53 H53        25.8221    3.2875    7.9385 H         1 UNK         0.0000 
     54 H54        26.7252    1.8151    7.8576 H         1 UNK         0.0000 
     55 H55        28.8805    4.4448   11.7610 H         1 UNK         0.0000 
     56 H56        28.1116    4.9776   13.2269 H         1 UNK         0.0000 
     57 H57        27.7076    2.2367   10.0348 H         1 UNK         0.0000 
     58 H58        27.2937    1.6290   11.7887 H         1 UNK         0.0000 
     59 H59        27.6461   -1.2813   13.5607 H         1 UNK         0.0000 
     60 O60        27.7238   -1.7036   11.2777 O.3       1 UNK         0.0000 
     61 C61        27.6781   -2.1299    9.9031 C.3       1 UNK         0.0000 
     62 C62        29.1002   -2.2742    9.3071 C.3       1 UNK         0.0000 
     63 H63        29.0723   -2.7321    8.3175 H         1 UNK         0.0000 
     64 H64        29.6001   -1.3134    9.1995 H         1 UNK         0.0000 
     65 H65        29.7336   -2.8977    9.9393 H         1 UNK         0.0000 
     66 C66        27.0044   -3.5170    9.9520 C.3       1 UNK         0.0000 
     67 H67        27.5772   -4.2188   10.5603 H         1 UNK         0.0000 
     68 H68        26.0043   -3.4615   10.3848 H         1 UNK         0.0000 
     69 H69        26.9061   -3.9516    8.9562 H         1 UNK         0.0000 
     70 C70        26.8113   -1.1705    9.0514 C.3       1 UNK         0.0000 
     71 H71        25.8155   -1.0491    9.4796 H         1 UNK         0.0000 
     72 H72        27.2510   -0.1776    8.9826 H         1 UNK         0.0000 
     73 H73        26.6889   -1.5404    8.0328 H         1 UNK         0.0000 
@<TRIPOS>BOND
     1    1   57 1    
     2    1   23 1    
     3    1   32 am   BACKBONE|DICT|INTERRES
     4    2   30 2    
     5    3    9 ar   
     6    3    6 ar   
     7    3   38 1    
     8    4   58 1    
     9    4   31 am   BACKBONE|DICT|INTERRES
    10    4   35 1    
    11    5   31 2    
    12    6   11 ar   
    13    6   39 1    
    14    7   59 1    
    15    7   33 am   BACKBONE|DICT|INTERRES
    16    7   34 1    
    17    8   32 2    
    18    9   13 ar   
    19    9   40 1    
    20   10   33 2    
    21   11   26 ar   
    22   11   41 1    
    23   12   28 1    
    24   12   29 1    
    25   13   42 1    
    26   13   26 ar   
    27   14   25 ar   
    28   14   18 ar   
    29   14   43 1    
    30   15   44 1    
    31   15   19 ar   
    32   15   25 ar   
    33   16   20 ar   
    34   16   27 ar   
    35   16   45 1    
    36   17   21 ar   
    37   17   46 1    
    38   17   27 ar   
    39   18   28 ar   
    40   18   47 1    
    41   19   48 1    
    42   19   28 ar   
    43   20   29 ar   
    44   20   49 1    
    45   21   50 1    
    46   21   29 ar   
    47   22   34 1    
    48   22   51 1    
    49   22   25 1    
    50   22   52 1    
    51   23   54 1    
    52   23   30 1    
    53   23   53 1    
    54   24   56 1    
    55   24   35 1    
    56   24   26 1    
    57   24   55 1    
    58   27   30 1    
    59   31   34 1    
    60   32   35 1    
    61   33   60 1    
    62   34   36 1    
    63   35   37 1    
    64   60   61 1    
    65   61   66 1    
    66   61   62 1    
    67   61   70 1    
    68   62   63 1    
    69   62   65 1    
    70   62   64 1    
    71   66   69 1    
    72   66   68 1    
    73   66   67 1    
    74   70   73 1    
    75   70   71 1    
    76   70   72 1    
@<TRIPOS>SUBSTRUCTURE
     1 UNK         1 GROUP             0       ****    0 ROOT    
@<TRIPOS>MOLECULE
Cpd3-7
73   76    1
SMALL
USER_CHARGES


@<TRIPOS>ATOM
      1 N1         26.5576    3.3358    9.3883 N.am      1 UNK         0.0000 
      2 O2         27.4706    3.0037    6.1917 O.2       1 UNK         0.0000 
      3 C3         23.7137    0.2189   15.2228 C.ar      1 UNK         0.0000 
      4 N4         27.4357    2.7561   12.8824 N.am      1 UNK         0.0000 
      5 O5         27.5976    0.5240   13.3151 O.2       1 UNK         0.0000 
      6 C6         24.2191    1.4534   15.6108 C.ar      1 UNK         0.0000 
      7 N7         27.8675    1.7899   15.9906 N.am      1 UNK         0.0000 
      8 O8         27.5253    4.7071   10.9329 O.2       1 UNK         0.0000 
      9 C9         23.6217   -0.1116   13.8762 C.ar      1 UNK         0.0000 
     10 O10        29.1746    2.9796   17.5238 O.2       1 UNK         0.0000 
     11 C11        24.6272    2.3725   14.6536 C.ar      1 UNK         0.0000 
     12 O12        32.5857    2.1141    9.9682 O.3       1 UNK         0.0000 
     13 C13        24.0279    0.7926   12.9035 C.ar      1 UNK         0.0000 
     14 C14        31.5960    2.4930   13.4667 C.ar      1 UNK         0.0000 
     15 C15        30.9354    0.3004   12.6769 C.ar      1 UNK         0.0000 
     16 C16        29.7941    4.1112    8.7006 C.ar      1 UNK         0.0000 
     17 C17        29.8126    1.9632    7.5866 C.ar      1 UNK         0.0000 
     18 C18        32.2419    2.7339   12.2580 C.ar      1 UNK         0.0000 
     19 C19        31.5772    0.5426   11.4680 C.ar      1 UNK         0.0000 
     20 C20        30.9805    3.7866    9.3463 C.ar      1 UNK         0.0000 
     21 C21        30.9992    1.6362    8.2380 C.ar      1 UNK         0.0000 
     22 C22        30.0169    1.1173   14.8860 C.3       1 UNK         0.0000 
     23 C23        26.7802    4.1412    8.1792 C.3       1 UNK         0.0000 
     24 C24        25.0727    3.0100   12.2321 C.3       1 UNK         0.0000 
     25 C25        30.8992    1.2970   13.6548 C.ar      1 UNK         0.0000 
     26 C26        24.5119    2.0630   13.2806 C.ar      1 UNK         0.0000 
     27 C27        29.1699    3.1750    7.8691 C.ar      1 UNK         0.0000 
     28 C28        32.1815    1.7810   11.2392 C.ar      1 UNK         0.0000 
     29 C29        31.5536    2.5267    9.1581 C.ar      1 UNK         0.0000 
     30 C30        27.8354    3.4750    7.2698 C.2       1 UNK         0.0000 
     31 C31        27.8668    1.6954   13.5913 C.2       1 UNK         0.0000 
     32 C32        26.9254    3.6719   10.6396 C.2       1 UNK         0.0000 
     33 C33        28.1897    2.2930   17.2436 C.2       1 UNK         0.0000 
     34 C34        28.7364    2.0140   14.8305 C.3       1 UNK         0.0000 
     35 C35        26.5074    2.6892   11.7476 C.3       1 UNK         0.0000 
     36 H36        29.0348    3.0657   14.7998 H         1 UNK         0.0000 
     37 H37        26.5217    1.6863   11.3161 H         1 UNK         0.0000 
     38 H38        23.4019   -0.4928   15.9730 H         1 UNK         0.0000 
     39 H39        24.3062    1.6950   16.6601 H         1 UNK         0.0000 
     40 H40        23.2431   -1.0802   13.5850 H         1 UNK         0.0000 
     41 H41        25.0435    3.3194   14.9650 H         1 UNK         0.0000 
     42 H42        23.9774    0.5184   11.8599 H         1 UNK         0.0000 
     43 H43        31.5783    3.2618   14.2256 H         1 UNK         0.0000 
     44 H44        30.4046   -0.6296   12.8199 H         1 UNK         0.0000 
     45 H45        29.3457    5.0745    8.8958 H         1 UNK         0.0000 
     46 H46        29.3665    1.2397    6.9187 H         1 UNK         0.0000 
     47 H47        32.7125    3.6902   12.0822 H         1 UNK         0.0000 
     48 H48        31.5332   -0.1962   10.6810 H         1 UNK         0.0000 
     49 H49        31.4161    4.4863   10.0443 H         1 UNK         0.0000 
     50 H50        31.4476    0.6658    8.0826 H         1 UNK         0.0000 
     51 H51        29.7437    0.0659   14.9995 H         1 UNK         0.0000 
     52 H52        30.6136    1.3533   15.7684 H         1 UNK         0.0000 
     53 H53        27.0886    5.1635    8.4047 H         1 UNK         0.0000 
     54 H54        25.8323    4.2465    7.6494 H         1 UNK         0.0000 
     55 H55        24.3926    2.9932   11.3789 H         1 UNK         0.0000 
     56 H56        25.0300    4.0269   12.6262 H         1 UNK         0.0000 
     57 H57        26.0412    2.4778    9.2566 H         1 UNK         0.0000 
     58 H58        27.7133    3.6849   13.1656 H         1 UNK         0.0000 
     59 H59        27.0807    1.1647   15.8914 H         1 UNK         0.0000 
     60 O60        27.2238    1.9054   18.1203 O.3       1 UNK         0.0000 
     61 C61        27.1764    2.2441   19.5191 C.3       1 UNK         0.0000 
     62 C62        25.8880    1.5669   20.0311 C.3       1 UNK         0.0000 
     63 H63        25.7323    1.7509   21.0950 H         1 UNK         0.0000 
     64 H64        25.0063    1.9332   19.5027 H         1 UNK         0.0000 
     65 H65        25.9199    0.4857   19.8871 H         1 UNK         0.0000 
     66 C66        28.3968    1.6683   20.2802 C.3       1 UNK         0.0000 
     67 H67        28.5088    0.5989   20.0964 H         1 UNK         0.0000 
     68 H68        29.3312    2.1449   19.9843 H         1 UNK         0.0000 
     69 H69        28.2940    1.8059   21.3573 H         1 UNK         0.0000 
     70 C70        27.0658    3.7758   19.7253 C.3       1 UNK         0.0000 
     71 H71        27.9702    4.3007   19.4183 H         1 UNK         0.0000 
     72 H72        26.2395    4.1937   19.1487 H         1 UNK         0.0000 
     73 H73        26.8916    4.0237   20.7731 H         1 UNK         0.0000 
@<TRIPOS>BOND
     1    1   32 am   BACKBONE|DICT|INTERRES
     2    1   23 1    
     3    1   57 1    
     4    2   30 2    
     5    3    6 ar   
     6    3   38 1    
     7    3    9 ar   
     8    4   58 1    
     9    4   31 am   BACKBONE|DICT|INTERRES
    10    4   35 1    
    11    5   31 2    
    12    6   39 1    
    13    6   11 ar   
    14    7   33 am   BACKBONE|DICT|INTERRES
    15    7   34 1    
    16    7   59 1    
    17    8   32 2    
    18    9   13 ar   
    19    9   40 1    
    20   10   33 2    
    21   11   41 1    
    22   11   26 ar   
    23   12   28 1    
    24   12   29 1    
    25   13   26 ar   
    26   13   42 1    
    27   14   25 ar   
    28   14   43 1    
    29   14   18 ar   
    30   15   44 1    
    31   15   25 ar   
    32   15   19 ar   
    33   16   20 ar   
    34   16   27 ar   
    35   16   45 1    
    36   17   21 ar   
    37   17   27 ar   
    38   17   46 1    
    39   18   28 ar   
    40   18   47 1    
    41   19   28 ar   
    42   19   48 1    
    43   20   29 ar   
    44   20   49 1    
    45   21   50 1    
    46   21   29 ar   
    47   22   51 1    
    48   22   52 1    
    49   22   25 1    
    50   22   34 1    
    51   23   53 1    
    52   23   30 1    
    53   23   54 1    
    54   24   56 1    
    55   24   26 1    
    56   24   35 1    
    57   24   55 1    
    58   27   30 1    
    59   31   34 1    
    60   32   35 1    
    61   33   60 1    
    62   34   36 1    
    63   35   37 1    
    64   60   61 1    
    65   61   62 1    
    66   61   66 1    
    67   61   70 1    
    68   62   65 1    
    69   62   63 1    
    70   62   64 1    
    71   66   67 1    
    72   66   69 1    
    73   66   68 1    
    74   70   73 1    
    75   70   71 1    
    76   70   72 1    
@<TRIPOS>SUBSTRUCTURE
     1 UNK         1 GROUP             0       ****    0 ROOT    
@<TRIPOS>MOLECULE
Cpd3-8
73   76    1
SMALL
USER_CHARGES


@<TRIPOS>ATOM
      1 N1         26.3774    2.6380    9.3751 N.am      1 UNK         0.0000 
      2 O2         27.7802    4.9706    7.1973 O.2       1 UNK         0.0000 
      3 C3         22.8316    6.4833   10.2981 C.ar      1 UNK         0.0000 
      4 N4         26.7678    1.7961   12.5970 N.am      1 UNK         0.0000 
      5 O5         28.2257    3.2203   13.6039 O.2       1 UNK         0.0000 
      6 C6         24.0831    6.8876   10.7456 C.ar      1 UNK         0.0000 
      7 N7         28.3176   -0.4909   13.5619 N.am      1 UNK         0.0000 
      8 O8         27.4208    4.2334   10.6526 O.2       1 UNK         0.0000 
      9 C9         22.3469    5.2199   10.6135 C.ar      1 UNK         0.0000 
     10 O10        28.7725   -0.0299   11.3044 O.2       1 UNK         0.0000 
     11 C11        24.8576    6.0353   11.5214 C.ar      1 UNK         0.0000 
     12 O12        32.6987    1.9217    9.8951 O.3       1 UNK         0.0000 
     13 C13        23.1062    4.3523   11.3875 C.ar      1 UNK         0.0000 
     14 C14        31.2882    2.6256   13.1765 C.ar      1 UNK         0.0000 
     15 C15        31.5098    0.2322   12.8936 C.ar      1 UNK         0.0000 
     16 C16        29.3720    1.9077    8.3642 C.ar      1 UNK         0.0000 
     17 C17        30.3125    4.1323    8.2387 C.ar      1 UNK         0.0000 
     18 C18        31.9920    2.8291   11.9980 C.ar      1 UNK         0.0000 
     19 C19        32.2001    0.4338   11.7022 C.ar      1 UNK         0.0000 
     20 C20        30.5748    1.4332    8.8751 C.ar      1 UNK         0.0000 
     21 C21        31.5149    3.6575    8.7532 C.ar      1 UNK         0.0000 
     22 C22        29.9414    1.1141   14.6808 C.3       1 UNK         0.0000 
     23 C23        26.5948    3.0525    7.9731 C.3       1 UNK         0.0000 
     24 C24        25.2392    3.7784   12.6415 C.3       1 UNK         0.0000 
     25 C25        30.9681    1.3268   13.5739 C.ar      1 UNK         0.0000 
     26 C26        24.3648    4.7611   11.8775 C.ar      1 UNK         0.0000 
     27 C27        29.2142    3.2728    8.0939 C.ar      1 UNK         0.0000 
     28 C28        32.3623    1.7311   11.2153 C.ar      1 UNK         0.0000 
     29 C29        31.6269    2.3193    9.1262 C.ar      1 UNK         0.0000 
     30 C30        27.8952    3.8337    7.6587 C.2       1 UNK         0.0000 
     31 C31        27.8130    2.0787   13.4012 C.2       1 UNK         0.0000 
     32 C32        26.6783    3.2586   10.5362 C.2       1 UNK         0.0000 
     33 C33        28.4436   -0.8024   12.2073 C.2       1 UNK         0.0000 
     34 C34        28.4998    0.8707   14.1218 C.3       1 UNK         0.0000 
     35 C35        25.9534    2.7019   11.7812 C.3       1 UNK         0.0000 
     36 H36        27.8821    0.8097   15.0190 H         1 UNK         0.0000 
     37 H37        25.1553    2.0618   11.4011 H         1 UNK         0.0000 
     38 H38        22.2365    7.1509    9.6927 H         1 UNK         0.0000 
     39 H39        24.4587    7.8656   10.4828 H         1 UNK         0.0000 
     40 H40        21.3793    4.9084   10.2486 H         1 UNK         0.0000 
     41 H41        25.8375    6.3509   11.8490 H         1 UNK         0.0000 
     42 H42        22.7305    3.3648   11.6123 H         1 UNK         0.0000 
     43 H43        30.9062    3.4787   13.7179 H         1 UNK         0.0000 
     44 H44        31.2927   -0.7757   13.2165 H         1 UNK         0.0000 
     45 H45        28.5586    1.2088    8.2349 H         1 UNK         0.0000 
     46 H46        30.2293    5.1866    8.0151 H         1 UNK         0.0000 
     47 H47        32.1336    3.8353   11.6314 H         1 UNK         0.0000 
     48 H48        32.4974   -0.4155   11.1047 H         1 UNK         0.0000 
     49 H49        30.6602    0.3941    9.1562 H         1 UNK         0.0000 
     50 H50        32.3260    4.3451    8.9435 H         1 UNK         0.0000 
     51 H51        30.2554    0.2758   15.3052 H         1 UNK         0.0000 
     52 H52        29.9452    1.9805   15.3449 H         1 UNK         0.0000 
     53 H53        25.7275    3.6312    7.6510 H         1 UNK         0.0000 
     54 H54        26.5935    2.1544    7.3553 H         1 UNK         0.0000 
     55 H55        25.9519    4.3452   13.2401 H         1 UNK         0.0000 
     56 H56        24.5921    3.2699   13.3573 H         1 UNK         0.0000 
     57 H57        25.7574    1.8455    9.4614 H         1 UNK         0.0000 
     58 H58        26.5036    0.8250   12.5121 H         1 UNK         0.0000 
     59 H59        28.0375   -1.2201   14.2020 H         1 UNK         0.0000 
     60 O60        28.1638   -2.1220   12.0361 O.3       1 UNK         0.0000 
     61 C61        28.2365   -2.8307   10.7833 C.3       1 UNK         0.0000 
     62 C62        29.6834   -2.8376   10.2279 C.3       1 UNK         0.0000 
     63 H63        29.7709   -3.4853    9.3546 H         1 UNK         0.0000 
     64 H64        30.0152   -1.8450    9.9244 H         1 UNK         0.0000 
     65 H65        30.3923   -3.1975   10.9747 H         1 UNK         0.0000 
     66 C66        27.8174   -4.2736   11.1334 C.3       1 UNK         0.0000 
     67 H67        28.4829   -4.7144   11.8773 H         1 UNK         0.0000 
     68 H68        26.8082   -4.3079   11.5471 H         1 UNK         0.0000 
     69 H69        27.8334   -4.9214   10.2557 H         1 UNK         0.0000 
     70 C70        27.2464   -2.2483    9.7420 C.3       1 UNK         0.0000 
     71 H71        26.2380   -2.1780   10.1517 H         1 UNK         0.0000 
     72 H72        27.5299   -1.2488    9.4122 H         1 UNK         0.0000 
     73 H73        27.1940   -2.8749    8.8508 H         1 UNK         0.0000 
@<TRIPOS>BOND
     1    1   57 1    
     2    1   23 1    
     3    1   32 am   BACKBONE|DICT|INTERRES
     4    2   30 2    
     5    3    9 ar   
     6    3    6 ar   
     7    3   38 1    
     8    4   58 1    
     9    4   31 am   BACKBONE|DICT|INTERRES
    10    4   35 1    
    11    5   31 2    
    12    6   11 ar   
    13    6   39 1    
    14    7   59 1    
    15    7   33 am   BACKBONE|DICT|INTERRES
    16    7   34 1    
    17    8   32 2    
    18    9   40 1    
    19    9   13 ar   
    20   10   33 2    
    21   11   26 ar   
    22   11   41 1    
    23   12   28 1    
    24   12   29 1    
    25   13   42 1    
    26   13   26 ar   
    27   14   25 ar   
    28   14   18 ar   
    29   14   43 1    
    30   15   44 1    
    31   15   19 ar   
    32   15   25 ar   
    33   16   20 ar   
    34   16   45 1    
    35   16   27 ar   
    36   17   21 ar   
    37   17   27 ar   
    38   17   46 1    
    39   18   28 ar   
    40   18   47 1    
    41   19   48 1    
    42   19   28 ar   
    43   20   49 1    
    44   20   29 ar   
    45   21   29 ar   
    46   21   50 1    
    47   22   34 1    
    48   22   51 1    
    49   22   25 1    
    50   22   52 1    
    51   23   54 1    
    52   23   30 1    
    53   23   53 1    
    54   24   35 1    
    55   24   56 1    
    56   24   26 1    
    57   24   55 1    
    58   27   30 1    
    59   31   34 1    
    60   32   35 1    
    61   33   60 1    
    62   34   36 1    
    63   35   37 1    
    64   60   61 1    
    65   61   66 1    
    66   61   62 1    
    67   61   70 1    
    68   62   63 1    
    69   62   65 1    
    70   62   64 1    
    71   66   69 1    
    72   66   68 1    
    73   66   67 1    
    74   70   71 1    
    75   70   73 1    
    76   70   72 1    
@<TRIPOS>SUBSTRUCTURE
     1 UNK         1 GROUP             0       ****    0 ROOT    
@<TRIPOS>MOLECULE
Cpd3-9
73   76    1
SMALL
USER_CHARGES


@<TRIPOS>ATOM
      1 N1         26.4408    3.4811    9.4426 N.am      1 UNK         0.0000 
      2 O2         27.3911    3.0629    6.3551 O.2       1 UNK         0.0000 
      3 C3         22.9324    6.1952   10.1970 C.ar      1 UNK         0.0000 
      4 N4         26.9968    1.6288   12.5263 N.am      1 UNK         0.0000 
      5 O5         28.0525    3.0827   13.9213 O.2       1 UNK         0.0000 
      6 C6         24.0479    6.6196   10.9082 C.ar      1 UNK         0.0000 
      7 N7         28.2704   -0.5461   13.6708 N.am      1 UNK         0.0000 
      8 O8         28.0386    3.9387   11.0099 O.2       1 UNK         0.0000 
      9 C9         22.5306    4.8663   10.2468 C.ar      1 UNK         0.0000 
     10 O10        28.4044   -2.8559   13.6661 O.2       1 UNK         0.0000 
     11 C11        24.7660    5.7199   11.6847 C.ar      1 UNK         0.0000 
     12 O12        32.6359    2.1617    9.9546 O.3       1 UNK         0.0000 
     13 C13        23.2356    3.9504   11.0168 C.ar      1 UNK         0.0000 
     14 C14        31.2817    2.5980   13.3189 C.ar      1 UNK         0.0000 
     15 C15        31.2119    0.2529   12.7238 C.ar      1 UNK         0.0000 
     16 C16        29.6915    1.9187    7.7985 C.ar      1 UNK         0.0000 
     17 C17        29.9592    4.2059    8.5471 C.ar      1 UNK         0.0000 
     18 C18        31.9723    2.8751   12.1457 C.ar      1 UNK         0.0000 
     19 C19        31.8908    0.5317   11.5419 C.ar      1 UNK         0.0000 
     20 C20        30.8938    1.5791    8.4126 C.ar      1 UNK         0.0000 
     21 C21        31.1672    3.8698    9.1452 C.ar      1 UNK         0.0000 
     22 C22        29.9286    1.0366   14.7722 C.3       1 UNK         0.0000 
     23 C23        26.8857    4.3255    8.3267 C.3       1 UNK         0.0000 
     24 C24        25.1900    3.3549   12.5269 C.3       1 UNK         0.0000 
     25 C25        30.8503    1.2959   13.5815 C.ar      1 UNK         0.0000 
     26 C26        24.3492    4.3738   11.7730 C.ar      1 UNK         0.0000 
     27 C27        29.1856    3.2164    7.9310 C.ar      1 UNK         0.0000 
     28 C28        32.2177    1.8517   11.2269 C.ar      1 UNK         0.0000 
     29 C29        31.6016    2.5433    9.1332 C.ar      1 UNK         0.0000 
     30 C30        27.8400    3.5536    7.3918 C.2       1 UNK         0.0000 
     31 C31        27.8100    1.9292   13.5637 C.2       1 UNK         0.0000 
     32 C32        27.0010    3.3744   10.6645 C.2       1 UNK         0.0000 
     33 C33        28.4382   -1.7910   14.2814 C.2       1 UNK         0.0000 
     34 C34        28.4381    0.7482   14.3699 C.3       1 UNK         0.0000 
     35 C35        26.1993    2.5298   11.6803 C.3       1 UNK         0.0000 
     36 H36        27.8499    0.6998   15.2886 H         1 UNK         0.0000 
     37 H37        25.5968    1.8476   11.0782 H         1 UNK         0.0000 
     38 H38        22.3812    6.9004    9.5925 H         1 UNK         0.0000 
     39 H39        24.3633    7.6509   10.8499 H         1 UNK         0.0000 
     40 H40        21.6721    4.5421    9.6773 H         1 UNK         0.0000 
     41 H41        25.6456    6.0526   12.2162 H         1 UNK         0.0000 
     42 H42        22.9301    2.9145   11.0329 H         1 UNK         0.0000 
     43 H43        31.0236    3.4081   13.9856 H         1 UNK         0.0000 
     44 H44        30.9090   -0.7622   12.9326 H         1 UNK         0.0000 
     45 H45        29.1252    1.1502    7.2915 H         1 UNK         0.0000 
     46 H46        29.6132    5.2271    8.6165 H         1 UNK         0.0000 
     47 H47        32.2334    3.8962   11.9100 H         1 UNK         0.0000 
     48 H48        32.0881   -0.2618   10.8361 H         1 UNK         0.0000 
     49 H49        31.2355    0.5546    8.3938 H         1 UNK         0.0000 
     50 H50        31.7213    4.6214    9.6876 H         1 UNK         0.0000 
     51 H51        30.3490    0.2191   15.3585 H         1 UNK         0.0000 
     52 H52        29.9607    1.8950   15.4459 H         1 UNK         0.0000 
     53 H53        27.3467    5.2496    8.6778 H         1 UNK         0.0000 
     54 H54        26.0078    4.6563    7.7703 H         1 UNK         0.0000 
     55 H55        25.6913    3.8743   13.3430 H         1 UNK         0.0000 
     56 H56        24.4965    2.6608   13.0038 H         1 UNK         0.0000 
     57 H57        25.5772    2.9824    9.2828 H         1 UNK         0.0000 
     58 H58        26.8687    0.6504   12.3111 H         1 UNK         0.0000 
     59 H59        28.1679   -0.5152   12.6666 H         1 UNK         0.0000 
     60 O60        28.6329   -1.6814   15.6332 O.3       1 UNK         0.0000 
     61 C61        28.8955   -2.7721   16.5350 C.3       1 UNK         0.0000 
     62 C62        27.7056   -3.7625   16.5853 C.3       1 UNK         0.0000 
     63 H63        27.8437   -4.5088   17.3687 H         1 UNK         0.0000 
     64 H64        26.7680   -3.2440   16.7897 H         1 UNK         0.0000 
     65 H65        27.5767   -4.3033   15.6479 H         1 UNK         0.0000 
     66 C66        30.2118   -3.5010   16.1659 C.3       1 UNK         0.0000 
     67 H67        30.1382   -4.0329   15.2176 H         1 UNK         0.0000 
     68 H68        31.0411   -2.7979   16.0766 H         1 UNK         0.0000 
     69 H69        30.4856   -4.2351   16.9248 H         1 UNK         0.0000 
     70 C70        29.0570   -2.0949   17.9118 C.3       1 UNK         0.0000 
     71 H71        29.8750   -1.3726   17.9087 H         1 UNK         0.0000 
     72 H72        28.1544   -1.5537   18.1998 H         1 UNK         0.0000 
     73 H73        29.2664   -2.8235   18.6964 H         1 UNK         0.0000 
@<TRIPOS>BOND
     1    1   57 1    
     2    1   32 am   BACKBONE|DICT|INTERRES
     3    1   23 1    
     4    2   30 2    
     5    3    6 ar   
     6    3    9 ar   
     7    3   38 1    
     8    4   31 am   BACKBONE|DICT|INTERRES
     9    4   58 1    
    10    4   35 1    
    11    5   31 2    
    12    6   11 ar   
    13    6   39 1    
    14    7   33 am   BACKBONE|DICT|INTERRES
    15    7   34 1    
    16    7   59 1    
    17    8   32 2    
    18    9   13 ar   
    19    9   40 1    
    20   10   33 2    
    21   11   41 1    
    22   11   26 ar   
    23   12   28 1    
    24   12   29 1    
    25   13   26 ar   
    26   13   42 1    
    27   14   25 ar   
    28   14   18 ar   
    29   14   43 1    
    30   15   44 1    
    31   15   19 ar   
    32   15   25 ar   
    33   16   45 1    
    34   16   20 ar   
    35   16   27 ar   
    36   17   27 ar   
    37   17   21 ar   
    38   17   46 1    
    39   18   28 ar   
    40   18   47 1    
    41   19   48 1    
    42   19   28 ar   
    43   20   49 1    
    44   20   29 ar   
    45   21   29 ar   
    46   21   50 1    
    47   22   51 1    
    48   22   25 1    
    49   22   34 1    
    50   22   52 1    
    51   23   30 1    
    52   23   53 1    
    53   23   54 1    
    54   24   55 1    
    55   24   56 1    
    56   24   26 1    
    57   24   35 1    
    58   27   30 1    
    59   31   34 1    
    60   32   35 1    
    61   33   60 1    
    62   34   36 1    
    63   35   37 1    
    64   60   61 1    
    65   61   66 1    
    66   61   70 1    
    67   61   62 1    
    68   62   63 1    
    69   62   64 1    
    70   62   65 1    
    71   66   69 1    
    72   66   67 1    
    73   66   68 1    
    74   70   73 1    
    75   70   71 1    
    76   70   72 1    
@<TRIPOS>SUBSTRUCTURE
     1 UNK         1 GROUP             0       ****    0 ROOT    
@<TRIPOS>MOLECULE
Cpd3-10
73   76    1
SMALL
USER_CHARGES


@<TRIPOS>ATOM
      1 N1         26.5623    3.3072    9.3810 N.am      1 UNK         0.0000 
      2 O2         27.4888    3.0153    6.1793 O.2       1 UNK         0.0000 
      3 C3         23.7062    0.0757   15.1384 C.ar      1 UNK         0.0000 
      4 N4         27.4134    2.7596   12.8840 N.am      1 UNK         0.0000 
      5 O5         27.5564    0.5426   13.3932 O.2       1 UNK         0.0000 
      6 C6         24.1476    1.3277   15.5470 C.ar      1 UNK         0.0000 
      7 N7         27.9054    2.1253   16.0149 N.am      1 UNK         0.0000 
      8 O8         27.4572    4.7126   10.9383 O.2       1 UNK         0.0000 
      9 C9         23.6728   -0.2515   13.7884 C.ar      1 UNK         0.0000 
     10 O10        28.3797    0.0532   17.0284 O.2       1 UNK         0.0000 
     11 C11        24.5526    2.2666   14.6082 C.ar      1 UNK         0.0000 
     12 O12        32.5958    2.1139    9.9633 O.3       1 UNK         0.0000 
     13 C13        24.0733    0.6737   12.8331 C.ar      1 UNK         0.0000 
     14 C14        31.6518    2.4596   13.4778 C.ar      1 UNK         0.0000 
     15 C15        30.9007    0.3108   12.6503 C.ar      1 UNK         0.0000 
     16 C16        29.7812    4.1021    8.7304 C.ar      1 UNK         0.0000 
     17 C17        29.8427    1.9870    7.5571 C.ar      1 UNK         0.0000 
     18 C18        32.2978    2.6995   12.2686 C.ar      1 UNK         0.0000 
     19 C19        31.5446    0.5506   11.4425 C.ar      1 UNK         0.0000 
     20 C20        30.9678    3.7782    9.3762 C.ar      1 UNK         0.0000 
     21 C21        31.0301    1.6608    8.2077 C.ar      1 UNK         0.0000 
     22 C22        30.0185    1.1200   14.8758 C.3       1 UNK         0.0000 
     23 C23        26.7761    4.1213    8.1759 C.3       1 UNK         0.0000 
     24 C24        25.0462    2.9356   12.2053 C.3       1 UNK         0.0000 
     25 C25        30.9080    1.2890   13.6475 C.ar      1 UNK         0.0000 
     26 C26        24.4944    1.9600   13.2313 C.ar      1 UNK         0.0000 
     27 C27        29.1782    3.1802    7.8677 C.ar      1 UNK         0.0000 
     28 C28        32.1927    1.7701   11.2321 C.ar      1 UNK         0.0000 
     29 C29        31.5632    2.5336    9.1569 C.ar      1 UNK         0.0000 
     30 C30        27.8431    3.4750    7.2660 C.2       1 UNK         0.0000 
     31 C31        27.8495    1.7185   13.6184 C.2       1 UNK         0.0000 
     32 C32        26.8979    3.6568   10.6376 C.2       1 UNK         0.0000 
     33 C33        27.7931    1.1352   16.9892 C.2       1 UNK         0.0000 
     34 C34        28.7672    2.0648   14.8157 C.3       1 UNK         0.0000 
     35 C35        26.4973    2.6624   11.7415 C.3       1 UNK         0.0000 
     36 H36        29.1411    3.0837   14.6958 H         1 UNK         0.0000 
     37 H37        26.5520    1.6600   11.3116 H         1 UNK         0.0000 
     38 H38        23.3982   -0.6514   15.8751 H         1 UNK         0.0000 
     39 H39        24.1871    1.5688   16.5988 H         1 UNK         0.0000 
     40 H40        23.3434   -1.2331   13.4811 H         1 UNK         0.0000 
     41 H41        24.9194    3.2280   14.9371 H         1 UNK         0.0000 
     42 H42        24.0670    0.4037   11.7873 H         1 UNK         0.0000 
     43 H43        31.6687    3.2140   14.2509 H         1 UNK         0.0000 
     44 H44        30.3343   -0.6004   12.7778 H         1 UNK         0.0000 
     45 H45        29.3165    5.0525    8.9490 H         1 UNK         0.0000 
     46 H46        29.4135    1.2754    6.8658 H         1 UNK         0.0000 
     47 H47        32.8024    3.6408   12.1069 H         1 UNK         0.0000 
     48 H48        31.4665   -0.1706   10.6421 H         1 UNK         0.0000 
     49 H49        31.3866    4.4646   10.0973 H         1 UNK         0.0000 
     50 H50        31.4952    0.7025    8.0285 H         1 UNK         0.0000 
     51 H51        29.7276    0.0715   14.9550 H         1 UNK         0.0000 
     52 H52        30.6140    1.3320   15.7652 H         1 UNK         0.0000 
     53 H53        27.0703    5.1468    8.4058 H         1 UNK         0.0000 
     54 H54        25.8278    4.2149    7.6448 H         1 UNK         0.0000 
     55 H55        24.3815    2.9079   11.3403 H         1 UNK         0.0000 
     56 H56        24.9665    3.9465   12.6088 H         1 UNK         0.0000 
     57 H57        26.0771    2.4324    9.2414 H         1 UNK         0.0000 
     58 H58        27.7064    3.6942   13.1300 H         1 UNK         0.0000 
     59 H59        27.3143    2.9398   16.0996 H         1 UNK         0.0000 
     60 O60        26.8837    1.5556   17.9115 O.3       1 UNK         0.0000 
     61 C61        26.4677    0.8167   19.0766 C.3       1 UNK         0.0000 
     62 C62        25.7943   -0.5251   18.6916 C.3       1 UNK         0.0000 
     63 H63        25.3637   -1.0173   19.5645 H         1 UNK         0.0000 
     64 H64        24.9883   -0.3730   17.9734 H         1 UNK         0.0000 
     65 H65        26.4957   -1.2279   18.2429 H         1 UNK         0.0000 
     66 C66        27.6539    0.5821   20.0451 C.3       1 UNK         0.0000 
     67 H67        28.4011   -0.0927   19.6277 H         1 UNK         0.0000 
     68 H68        28.1620    1.5176   20.2821 H         1 UNK         0.0000 
     69 H69        27.3177    0.1451   20.9862 H         1 UNK         0.0000 
     70 C70        25.4264    1.7301   19.7565 C.3       1 UNK         0.0000 
     71 H71        25.8576    2.6944   20.0298 H         1 UNK         0.0000 
     72 H72        24.5811    1.9336   19.0972 H         1 UNK         0.0000 
     73 H73        25.0295    1.2793   20.6671 H         1 UNK         0.0000 
@<TRIPOS>BOND
     1    1   57 1    
     2    1   32 am   BACKBONE|DICT|INTERRES
     3    1   23 1    
     4    2   30 2    
     5    3   38 1    
     6    3    6 ar   
     7    3    9 ar   
     8    4   31 am   BACKBONE|DICT|INTERRES
     9    4   35 1    
    10    4   58 1    
    11    5   31 2    
    12    6   39 1    
    13    6   11 ar   
    14    7   33 am   BACKBONE|DICT|INTERRES
    15    7   34 1    
    16    7   59 1    
    17    8   32 2    
    18    9   40 1    
    19    9   13 ar   
    20   10   33 2    
    21   11   26 ar   
    22   11   41 1    
    23   12   28 1    
    24   12   29 1    
    25   13   26 ar   
    26   13   42 1    
    27   14   43 1    
    28   14   25 ar   
    29   14   18 ar   
    30   15   44 1    
    31   15   25 ar   
    32   15   19 ar   
    33   16   20 ar   
    34   16   27 ar   
    35   16   45 1    
    36   17   21 ar   
    37   17   27 ar   
    38   17   46 1    
    39   18   28 ar   
    40   18   47 1    
    41   19   28 ar   
    42   19   48 1    
    43   20   29 ar   
    44   20   49 1    
    45   21   50 1    
    46   21   29 ar   
    47   22   51 1    
    48   22   52 1    
    49   22   25 1    
    50   22   34 1    
    51   23   30 1    
    52   23   53 1    
    53   23   54 1    
    54   24   26 1    
    55   24   35 1    
    56   24   55 1    
    57   24   56 1    
    58   27   30 1    
    59   31   34 1    
    60   32   35 1    
    61   33   60 1    
    62   34   36 1    
    63   35   37 1    
    64   60   61 1    
    65   61   62 1    
    66   61   70 1    
    67   61   66 1    
    68   62   63 1    
    69   62   64 1    
    70   62   65 1    
    71   66   69 1    
    72   66   67 1    
    73   66   68 1    
    74   70   73 1    
    75   70   71 1    
    76   70   72 1    
@<TRIPOS>SUBSTRUCTURE
     1 UNK         1 GROUP             0       ****    0 ROOT    
