@<TRIPOS>MOLECULE
Cpd3-1
73   76    1
SMALL
USER_CHARGES


@<TRIPOS>ATOM
      1 N           1.2667   -1.5920    1.9503 N.3       1 ****        0.0000 
      2 O           3.9668   -0.5710    3.7065 O.3       1 ****        0.0000 
      3 C           4.3920   -3.7434   -1.1333 C.3       1 ****        0.0000 
      4 N          -1.0989   -0.3632   -0.5141 N.3       1 ****        0.0000 
      5 O          -1.1462   -1.0412   -2.6779 O.3       1 ****        0.0000 
      6 C           4.6524   -2.5605   -0.4452 C.3       1 ****        0.0000 
      7 N          -3.3279    1.1838   -0.8271 N.3       1 ****        0.0000 
      8 O          -0.7346   -0.5281    2.0638 O.3       1 ****        0.0000 
      9 C           3.1438   -3.9359   -1.7289 C.3       1 ****        0.0000 
     10 O          -4.7756   -0.5290   -0.4227 O.3       1 ****        0.0000 
     11 C           3.6655   -1.5788   -0.3461 C.3       1 ****        0.0000 
     12 O           1.9483    4.0721   -0.2235 O.3       1 ****        0.0000 
     13 C           2.1599   -2.9542   -1.6280 C.3       1 ****        0.0000 
     14 C           0.1193    2.0603   -2.6727 C.3       1 ****        0.0000 
     15 C          -1.3976    3.6386   -1.6778 C.3       1 ****        0.0000 
     16 C           3.7218    1.5586    1.7623 C.3       1 ****        0.0000 
     17 C           1.3905    1.5695    2.3971 C.3       1 ****        0.0000 
     18 C           1.1766    2.6230   -1.9705 C.3       1 ****        0.0000 
     19 C          -0.3437    4.2169   -0.9662 C.3       1 ****        0.0000 
     20 C           3.4952    2.6149    0.8826 C.3       1 ****        0.0000 
     21 C           1.1585    2.6334    1.5387 C.3       1 ****        0.0000 
     22 C          -2.3427    1.7027   -3.0293 C.3       1 ****        0.0000 
     23 C           1.7150   -1.2746    3.2967 C.3       1 ****        0.0000 
     24 C           1.3306   -0.7090   -0.8318 C.3       1 ****        0.0000 
     25 C          -1.1926    2.5151   -2.4860 C.3       1 ****        0.0000 
     26 C           2.4074   -1.7650   -0.9292 C.3       1 ****        0.0000 
     27 C           2.6633    0.9933    2.4836 C.3       1 ****        0.0000 
     28 C           0.9232    3.6580   -1.0733 C.3       1 ****        0.0000 
     29 C           2.2016    3.1135    0.7436 C.3       1 ****        0.0000 
     30 C           2.8845   -0.2759    3.2378 C.3       1 ****        0.0000 
     31 C          -1.6024   -0.3573   -1.7614 C.3       1 ****        0.0000 
     32 C           0.1378   -1.0826    1.4033 C.3       1 ****        0.0000 
     33 C          -4.3111    0.5562   -0.1192 C.3       1 ****        0.0000 
     34 C          -2.7755    0.6022   -2.0297 C.3       1 ****        0.0000 
     35 C           0.0320   -1.1821   -0.1288 C.3       1 ****        0.0000 
     36 H          -3.5551   -0.0070   -2.4950 H         1 ****        0.0000 
     37 H          -0.1682   -2.2255   -0.4063 H         1 ****        0.0000 
     38 H           5.1563   -4.5109   -1.2101 H         1 ****        0.0000 
     39 H           5.6216   -2.3990    0.0178 H         1 ****        0.0000 
     40 H           2.9372   -4.8505   -2.2750 H         1 ****        0.0000 
     41 H           3.8717   -0.6531    0.1862 H         1 ****        0.0000 
     42 H           1.1941   -3.1022   -2.1049 H         1 ****        0.0000 
     43 H           0.2985    1.2206   -3.3406 H         1 ****        0.0000 
     44 H          -2.3976    4.0548   -1.5745 H         1 ****        0.0000 
     45 H           4.7128    1.1231    1.8524 H         1 ****        0.0000 
     46 H           0.5625    1.1728    2.9733 H         1 ****        0.0000 
     47 H           2.1858    2.2318   -2.0637 H         1 ****        0.0000 
     48 H          -0.5086    5.0521   -0.2925 H         1 ****        0.0000 
     49 H           4.2929    3.0221    0.2699 H         1 ****        0.0000 
     50 H           0.1649    3.0578    1.4444 H         1 ****        0.0000 
     51 H          -3.2148    2.3302   -3.2322 H         1 ****        0.0000 
     52 H          -2.0522    1.2047   -3.9576 H         1 ****        0.0000 
     53 H           2.0691   -2.1725    3.8064 H         1 ****        0.0000 
     54 H           0.8669   -0.8618    3.8486 H         1 ****        0.0000 
     55 H           1.7095    0.1863   -0.3229 H         1 ****        0.0000 
     56 H           1.0391   -0.4187   -1.8437 H         1 ****        0.0000 
     57 H           1.9380   -2.0380    1.3368 H         1 ****        0.0000 
     58 H          -1.5575    0.1580    0.2246 H         1 ****        0.0000 
     59 H          -2.9980    2.0799   -0.4932 H         1 ****        0.0000 
     60 O          -4.6674    1.3047    0.9354 O.3       1 ****        0.0000 
     61 C          -5.6561    0.8202    1.8999 C.3       1 ****        0.0000 
     62 C          -5.7049    1.9481    2.9238 C.3       1 ****        0.0000 
     63 H          -6.4288    1.7051    3.7062 H         1 ****        0.0000 
     64 H          -4.7236    2.0875    3.3854 H         1 ****        0.0000 
     65 H          -6.0073    2.8848    2.4463 H         1 ****        0.0000 
     66 C          -7.0102    0.6536    1.2184 C.3       1 ****        0.0000 
     67 H          -7.2969    1.5830    0.7187 H         1 ****        0.0000 
     68 H          -6.9894   -0.1567    0.4884 H         1 ****        0.0000 
     69 H          -7.7655    0.4252    1.9768 H         1 ****        0.0000 
     70 C          -5.1655   -0.4718    2.5483 C.3       1 ****        0.0000 
     71 H          -5.1609   -1.2975    1.8362 H         1 ****        0.0000 
     72 H          -4.1556   -0.3335    2.9445 H         1 ****        0.0000 
     73 H          -5.8293   -0.7255    3.3797 H         1 ****        0.0000 
@<TRIPOS>BOND
     1    1   23 1    
     2    1   32 1    
     3    1   57 1    
     4    2   30 1    
     5    3    6 1    
     6    3    9 1    
     7    3   38 1    
     8    4   31 1    
     9    4   35 1    
    10    4   58 1    
    11    5   31 1    
    12    6   11 1    
    13    6   39 1    
    14    7   33 1    
    15    7   34 1    
    16    7   59 1    
    17    8   32 1    
    18    9   13 1    
    19    9   40 1    
    20   10   33 1    
    21   11   26 1    
    22   11   41 1    
    23   12   28 1    
    24   12   29 1    
    25   13   26 1    
    26   13   42 1    
    27   14   18 1    
    28   14   25 1    
    29   14   43 1    
    30   15   19 1    
    31   15   25 1    
    32   15   44 1    
    33   16   20 1    
    34   16   27 1    
    35   16   45 1    
    36   17   21 1    
    37   17   27 1    
    38   17   46 1    
    39   18   28 1    
    40   18   47 1    
    41   19   28 1    
    42   19   48 1    
    43   20   29 1    
    44   20   49 1    
    45   21   29 1    
    46   21   50 1    
    47   22   25 1    
    48   22   34 1    
    49   22   51 1    
    50   22   52 1    
    51   23   30 1    
    52   23   53 1    
    53   23   54 1    
    54   24   26 1    
    55   24   35 1    
    56   24   55 1    
    57   24   56 1    
    58   27   30 1    
    59   31   34 1    
    60   32   35 1    
    61   33   60 1    
    62   34   36 1    
    63   35   37 1    
    64   60   61 1    
    65   61   62 1    
    66   61   66 1    
    67   61   70 1    
    68   62   63 1    
    69   62   64 1    
    70   62   65 1    
    71   66   67 1    
    72   66   68 1    
    73   66   69 1    
    74   70   71 1    
    75   70   72 1    
    76   70   73 1    
@<TRIPOS>SUBSTRUCTURE
     1 ****        1 GROUP             0       ****    0 ROOT    
@<TRIPOS>MOLECULE
Cpd3-2-MRC
73   76    1
SMALL
USER_CHARGES


@<TRIPOS>ATOM
      1 N           1.2567   -1.5851    1.9496 N.3       1 ****        0.0000 
      2 O           3.9666   -0.5892    3.6886 O.3       1 ****        0.0000 
      3 C           4.3708   -3.7730   -1.1146 C.3       1 ****        0.0000 
      4 N          -1.0823   -0.3285   -0.5294 N.3       1 ****        0.0000 
      5 O          -1.1730   -1.0992   -2.6587 O.3       1 ****        0.0000 
      6 C           3.1276   -3.9461   -1.7279 C.3       1 ****        0.0000 
      7 N          -3.3766    1.1492   -0.8692 N.3       1 ****        0.0000 
      8 O          -0.7322   -0.4960    2.0522 O.3       1 ****        0.0000 
      9 C           4.6370   -2.5978   -0.4155 C.3       1 ****        0.0000 
     10 O          -4.6198    0.9513    1.0291 O.3       1 ****        0.0000 
     11 C           2.1555   -2.9516   -1.6337 C.3       1 ****        0.0000 
     12 O           1.9501    4.0732   -0.2192 O.3       1 ****        0.0000 
     13 C           3.6626   -1.6022   -0.3259 C.3       1 ****        0.0000 
     14 C           0.1207    2.0581   -2.6641 C.3       1 ****        0.0000 
     15 C          -1.3978    3.6319   -1.6659 C.3       1 ****        0.0000 
     16 C           3.7222    1.5497    1.7551 C.3       1 ****        0.0000 
     17 C           1.3977    1.5794    2.4096 C.3       1 ****        0.0000 
     18 C           1.1775    2.6215   -1.9621 C.3       1 ****        0.0000 
     19 C          -0.3450    4.2107   -0.9533 C.3       1 ****        0.0000 
     20 C           3.4970    2.6086    0.8771 C.3       1 ****        0.0000 
     21 C           1.1669    2.6448    1.5532 C.3       1 ****        0.0000 
     22 C          -2.3369    1.7031   -3.0323 C.3       1 ****        0.0000 
     23 C           1.7039   -1.2681    3.2971 C.3       1 ****        0.0000 
     24 C           1.3443   -0.7021   -0.8367 C.3       1 ****        0.0000 
     25 C          -1.1906    2.5110   -2.4759 C.3       1 ****        0.0000 
     26 C           2.4102   -1.7695   -0.9265 C.3       1 ****        0.0000 
     27 C           2.6656    0.9928    2.4840 C.3       1 ****        0.0000 
     28 C           0.9237    3.6555   -1.0652 C.3       1 ****        0.0000 
     29 C           2.2057    3.1161    0.7492 C.3       1 ****        0.0000 
     30 C           2.8828   -0.2801    3.2332 C.3       1 ****        0.0000 
     31 C          -1.6077   -0.3700   -1.7676 C.3       1 ****        0.0000 
     32 C           0.1380   -1.0598    1.3963 C.3       1 ****        0.0000 
     33 C          -4.1484    0.4557    0.0201 C.3       1 ****        0.0000 
     34 C          -2.7807    0.5808   -2.0610 C.3       1 ****        0.0000 
     35 C           0.0380   -1.1570   -0.1354 C.3       1 ****        0.0000 
     36 H          -3.5262   -0.0322   -2.5748 H         1 ****        0.0000 
     37 H          -0.1748   -2.1982   -0.4151 H         1 ****        0.0000 
     38 H           5.1256   -4.5495   -1.1859 H         1 ****        0.0000 
     39 H           2.9165   -4.8546   -2.2819 H         1 ****        0.0000 
     40 H           5.6018   -2.4510    0.0598 H         1 ****        0.0000 
     41 H           1.1940   -3.0834   -2.1249 H         1 ****        0.0000 
     42 H           3.8735   -0.6830    0.2154 H         1 ****        0.0000 
     43 H           0.3013    1.2206   -3.3333 H         1 ****        0.0000 
     44 H          -2.3974    4.0491   -1.5612 H         1 ****        0.0000 
     45 H           4.7119    1.1074    1.8370 H         1 ****        0.0000 
     46 H           0.5715    1.1909    2.9944 H         1 ****        0.0000 
     47 H           2.1883    2.2335   -2.0576 H         1 ****        0.0000 
     48 H          -0.5101    5.0440   -0.2786 H         1 ****        0.0000 
     49 H           4.2930    3.0088    0.2581 H         1 ****        0.0000 
     50 H           0.1750    3.0772    1.4678 H         1 ****        0.0000 
     51 H          -3.2107    2.3315   -3.2341 H         1 ****        0.0000 
     52 H          -2.0426    1.2210   -3.9674 H         1 ****        0.0000 
     53 H           2.0492   -2.1677    3.8091 H         1 ****        0.0000 
     54 H           0.8585   -0.8461    3.8456 H         1 ****        0.0000 
     55 H           1.7305    0.1929   -0.3311 H         1 ****        0.0000 
     56 H           1.0576   -0.4122   -1.8501 H         1 ****        0.0000 
     57 H           1.9283   -2.0349    1.3382 H         1 ****        0.0000 
     58 H          -1.5042    0.2462    0.1910 H         1 ****        0.0000 
     59 H          -3.1988    2.1138   -0.6218 H         1 ****        0.0000 
     60 O          -4.2921   -0.8144   -0.3809 O.3       1 ****        0.0000 
     61 C          -4.8910   -1.8211    0.4958 C.3       1 ****        0.0000 
     62 C          -4.0954   -1.9089    1.7944 C.3       1 ****        0.0000 
     63 H          -4.4315   -2.7829    2.3597 H         1 ****        0.0000 
     64 H          -3.0284   -2.0249    1.5754 H         1 ****        0.0000 
     65 H          -4.2326   -1.0181    2.4080 H         1 ****        0.0000 
     66 C          -6.3641   -1.5034    0.7301 C.3       1 ****        0.0000 
     67 H          -6.4809   -0.5903    1.3144 H         1 ****        0.0000 
     68 H          -6.8803   -1.3877   -0.2279 H         1 ****        0.0000 
     69 H          -6.8268   -2.3337    1.2709 H         1 ****        0.0000 
     70 C          -4.7339   -3.1003   -0.3186 C.3       1 ****        0.0000 
     71 H          -5.2603   -3.0122   -1.2725 H         1 ****        0.0000 
     72 H          -3.6768   -3.2967   -0.5175 H         1 ****        0.0000 
     73 H          -5.1508   -3.9448    0.2357 H         1 ****        0.0000 
@<TRIPOS>BOND
     1    1   23 1    
     2    1   32 1    
     3    1   57 1    
     4    2   30 1    
     5    3    6 1    
     6    3    9 1    
     7    3   38 1    
     8    4   31 1    
     9    4   35 1    
    10    4   58 1    
    11    5   31 1    
    12    6   11 1    
    13    6   39 1    
    14    7   33 1    
    15    7   34 1    
    16    7   59 1    
    17    8   32 1    
    18    9   13 1    
    19    9   40 1    
    20   10   33 1    
    21   11   26 1    
    22   11   41 1    
    23   12   28 1    
    24   12   29 1    
    25   13   26 1    
    26   13   42 1    
    27   14   18 1    
    28   14   25 1    
    29   14   43 1    
    30   15   19 1    
    31   15   25 1    
    32   15   44 1    
    33   16   20 1    
    34   16   27 1    
    35   16   45 1    
    36   17   21 1    
    37   17   27 1    
    38   17   46 1    
    39   18   28 1    
    40   18   47 1    
    41   19   28 1    
    42   19   48 1    
    43   20   29 1    
    44   20   49 1    
    45   21   29 1    
    46   21   50 1    
    47   22   25 1    
    48   22   34 1    
    49   22   51 1    
    50   22   52 1    
    51   23   30 1    
    52   23   53 1    
    53   23   54 1    
    54   24   26 1    
    55   24   35 1    
    56   24   55 1    
    57   24   56 1    
    58   27   30 1    
    59   31   34 1    
    60   32   35 1    
    61   33   60 1    
    62   34   36 1    
    63   35   37 1    
    64   60   61 1    
    65   61   62 1    
    66   61   66 1    
    67   61   70 1    
    68   62   63 1    
    69   62   64 1    
    70   62   65 1    
    71   66   67 1    
    72   66   68 1    
    73   66   69 1    
    74   70   71 1    
    75   70   72 1    
    76   70   73 1    
@<TRIPOS>SUBSTRUCTURE
     1 ****        1 GROUP             0       ****    0 ROOT    
@<TRIPOS>MOLECULE
Cpd3-3
73   76    1
SMALL
USER_CHARGES


@<TRIPOS>ATOM
      1 N           1.8628   -1.6689    1.4576 N.3       1 ****        0.0000 
      2 O           2.1161   -0.0021    4.5995 O.3       1 ****        0.0000 
      3 C           4.3911   -3.9776   -1.9209 C.3       1 ****        0.0000 
      4 N          -0.8769   -0.3930   -0.5566 N.3       1 ****        0.0000 
      5 O          -1.3828   -1.0936   -2.6551 O.3       1 ****        0.0000 
      6 C           4.7741   -2.6971   -1.5254 C.3       1 ****        0.0000 
      7 N          -3.1458    1.1441   -0.4254 N.3       1 ****        0.0000 
      8 O          -0.0610   -0.5961    1.9205 O.3       1 ****        0.0000 
      9 C           3.0408   -4.2554   -2.1411 C.3       1 ****        0.0000 
     10 O          -4.3604   -0.6767    0.2008 O.3       1 ****        0.0000 
     11 C           3.8080   -1.7061   -1.3396 C.3       1 ****        0.0000 
     12 O           2.1234    4.0176   -0.3779 O.3       1 ****        0.0000 
     13 C           2.0804   -3.2630   -1.9560 C.3       1 ****        0.0000 
     14 C           0.0049    2.0911   -2.6708 C.3       1 ****        0.0000 
     15 C          -1.3739    3.6252   -1.4352 C.3       1 ****        0.0000 
     16 C           1.6242    2.1435    2.7305 C.3       1 ****        0.0000 
     17 C           3.2713    1.0097    1.3717 C.3       1 ****        0.0000 
     18 C           1.1438    2.6333   -2.0859 C.3       1 ****        0.0000 
     19 C          -0.2386    4.1738   -0.8343 C.3       1 ****        0.0000 
     20 C           1.5604    3.1737    1.8020 C.3       1 ****        0.0000 
     21 C           3.2348    2.0528    0.4494 C.3       1 ****        0.0000 
     22 C          -2.4879    1.7463   -2.7251 C.3       1 ****        0.0000 
     23 C           2.3353   -1.5594    2.8244 C.3       1 ****        0.0000 
     24 C           1.4087   -0.8983   -1.3524 C.3       1 ****        0.0000 
     25 C          -1.2716    2.5347   -2.3049 C.3       1 ****        0.0000 
     26 C           2.4513   -1.9758   -1.5443 C.3       1 ****        0.0000 
     27 C           2.4381    1.0323    2.4928 C.3       1 ****        0.0000 
     28 C           1.0061    3.6282   -1.1215 C.3       1 ****        0.0000 
     29 C           2.3292    3.0921    0.6420 C.3       1 ****        0.0000 
     30 C           2.2945   -0.1401    3.4061 C.3       1 ****        0.0000 
     31 C          -1.6220   -0.3863   -1.6774 C.3       1 ****        0.0000 
     32 C           0.6662   -1.1531    1.1021 C.3       1 ****        0.0000 
     33 C          -3.9142    0.4302    0.4467 C.3       1 ****        0.0000 
     34 C          -2.7945    0.6083   -1.7216 C.3       1 ****        0.0000 
     35 C           0.2650   -1.2660   -0.3772 C.3       1 ****        0.0000 
     36 H          -3.6477    0.0350   -2.0950 H         1 ****        0.0000 
     37 H          -0.0472   -2.3020   -0.5629 H         1 ****        0.0000 
     38 H           5.1378   -4.7512   -2.0642 H         1 ****        0.0000 
     39 H           5.8217   -2.4660   -1.3625 H         1 ****        0.0000 
     40 H           2.7345   -5.2466   -2.4610 H         1 ****        0.0000 
     41 H           4.1128   -0.7063   -1.0413 H         1 ****        0.0000 
     42 H           1.0336   -3.4864   -2.1474 H         1 ****        0.0000 
     43 H           0.1005    1.2782   -3.3859 H         1 ****        0.0000 
     44 H          -2.3522    4.0349   -1.1945 H         1 ****        0.0000 
     45 H           0.9961    2.1569    3.6159 H         1 ****        0.0000 
     46 H           3.9352    0.1660    1.2036 H         1 ****        0.0000 
     47 H           2.1315    2.2560   -2.3313 H         1 ****        0.0000 
     48 H          -0.3194    4.9858   -0.1193 H         1 ****        0.0000 
     49 H           0.8850    4.0122    1.9395 H         1 ****        0.0000 
     50 H           3.8567    2.0434   -0.4400 H         1 ****        0.0000 
     51 H          -3.3740    2.3846   -2.7875 H         1 ****        0.0000 
     52 H          -2.3284    1.2836   -3.7031 H         1 ****        0.0000 
     53 H           3.3687   -1.9171    2.8538 H         1 ****        0.0000 
     54 H           1.7420   -2.1778    3.5036 H         1 ****        0.0000 
     55 H           1.8766    0.0320   -1.0119 H         1 ****        0.0000 
     56 H           0.9324   -0.6992   -2.3164 H         1 ****        0.0000 
     57 H           2.4472   -2.1160    0.7643 H         1 ****        0.0000 
     58 H          -1.1632    0.1504    0.2499 H         1 ****        0.0000 
     59 H          -2.7771    2.0352   -0.1194 H         1 ****        0.0000 
     60 O          -4.0913    1.1253    1.5810 O.3       1 ****        0.0000 
     61 C          -4.8089    0.5408    2.7136 C.3       1 ****        0.0000 
     62 C          -4.7202    1.6392    3.7671 C.3       1 ****        0.0000 
     63 H          -5.2361    1.3196    4.6767 H         1 ****        0.0000 
     64 H          -3.6753    1.8488    4.0122 H         1 ****        0.0000 
     65 H          -5.1885    2.5571    3.4023 H         1 ****        0.0000 
     66 C          -6.2624    0.2782    2.3327 C.3       1 ****        0.0000 
     67 H          -6.7176    1.1904    1.9365 H         1 ****        0.0000 
     68 H          -6.3387   -0.5152    1.5875 H         1 ****        0.0000 
     69 H          -6.8170   -0.0215    3.2258 H         1 ****        0.0000 
     70 C          -4.0938   -0.7200    3.1917 C.3       1 ****        0.0000 
     71 H          -4.1789   -1.5267    2.4632 H         1 ****        0.0000 
     72 H          -3.0351   -0.5066    3.3704 H         1 ****        0.0000 
     73 H          -4.5424   -1.0470    4.1340 H         1 ****        0.0000 
@<TRIPOS>BOND
     1    1   23 1    
     2    1   32 1    
     3    1   57 1    
     4    2   30 1    
     5    3    6 1    
     6    3    9 1    
     7    3   38 1    
     8    4   31 1    
     9    4   35 1    
    10    4   58 1    
    11    5   31 1    
    12    6   11 1    
    13    6   39 1    
    14    7   33 1    
    15    7   34 1    
    16    7   59 1    
    17    8   32 1    
    18    9   13 1    
    19    9   40 1    
    20   10   33 1    
    21   11   26 1    
    22   11   41 1    
    23   12   28 1    
    24   12   29 1    
    25   13   26 1    
    26   13   42 1    
    27   14   18 1    
    28   14   25 1    
    29   14   43 1    
    30   15   19 1    
    31   15   25 1    
    32   15   44 1    
    33   16   20 1    
    34   16   27 1    
    35   16   45 1    
    36   17   21 1    
    37   17   27 1    
    38   17   46 1    
    39   18   28 1    
    40   18   47 1    
    41   19   28 1    
    42   19   48 1    
    43   20   29 1    
    44   20   49 1    
    45   21   29 1    
    46   21   50 1    
    47   22   25 1    
    48   22   34 1    
    49   22   51 1    
    50   22   52 1    
    51   23   30 1    
    52   23   53 1    
    53   23   54 1    
    54   24   26 1    
    55   24   35 1    
    56   24   55 1    
    57   24   56 1    
    58   27   30 1    
    59   31   34 1    
    60   32   35 1    
    61   33   60 1    
    62   34   36 1    
    63   35   37 1    
    64   60   61 1    
    65   61   62 1    
    66   61   66 1    
    67   61   70 1    
    68   62   63 1    
    69   62   64 1    
    70   62   65 1    
    71   66   67 1    
    72   66   68 1    
    73   66   69 1    
    74   70   71 1    
    75   70   72 1    
    76   70   73 1    
@<TRIPOS>SUBSTRUCTURE
     1 ****        1 GROUP             0       ****    0 ROOT    
@<TRIPOS>MOLECULE
Cpd3-4-MEC
73   76    1
SMALL
USER_CHARGES


@<TRIPOS>ATOM
      1 N           0.7348   -1.1603    2.2571 N.3       1 ****        0.0000 
      2 O           2.8046    0.0887    4.7017 O.3       1 ****        0.0000 
      3 C          -2.0834   -3.6527    4.6795 C.3       1 ****        0.0000 
      4 N          -0.7564   -0.8277   -0.9786 N.3       1 ****        0.0000 
      5 O          -2.9273   -0.1915   -1.0914 O.3       1 ****        0.0000 
      6 C          -2.8979   -2.6819    4.0958 C.3       1 ****        0.0000 
      7 N          -2.5338   -0.8237   -3.8554 N.3       1 ****        0.0000 
      8 O           1.4887   -1.7560    0.1948 O.3       1 ****        0.0000 
      9 C          -1.1291   -4.3111    3.9047 C.3       1 ****        0.0000 
     10 O          -1.2725   -0.7543   -5.7524 O.3       1 ****        0.0000 
     11 C          -2.7545   -2.3699    2.7445 C.3       1 ****        0.0000 
     12 O           1.8583    4.2039   -0.1166 O.3       1 ****        0.0000 
     13 C          -0.9857   -3.9933    2.5537 C.3       1 ****        0.0000 
     14 C           0.2074    2.8071   -3.0848 C.3       1 ****        0.0000 
     15 C          -1.3220    2.7632   -1.2268 C.3       1 ****        0.0000 
     16 C           2.7610    0.9189    1.2071 C.3       1 ****        0.0000 
     17 C           2.3353    2.4299    3.0468 C.3       1 ****        0.0000 
     18 C           1.1569    3.4674   -2.3023 C.3       1 ****        0.0000 
     19 C          -0.3849    3.4154   -0.4344 C.3       1 ****        0.0000 
     20 C           2.6034    1.9615    0.3105 C.3       1 ****        0.0000 
     21 C           2.1497    3.4804    2.1507 C.3       1 ****        0.0000 
     22 C          -1.9619    1.5300   -3.3280 C.3       1 ****        0.0000 
     23 C           1.9880   -1.3413    2.9678 C.3       1 ****        0.0000 
     24 C          -1.5942   -2.6116    0.5224 C.3       1 ****        0.0000 
     25 C          -1.0216    2.4138   -2.5488 C.3       1 ****        0.0000 
     26 C          -1.7944   -3.0194    1.9603 C.3       1 ****        0.0000 
     27 C           2.5839    1.1360    2.5784 C.3       1 ****        0.0000 
     28 C           0.8640    3.7224   -0.9697 C.3       1 ****        0.0000 
     29 C           2.2276    3.2201    0.7850 C.3       1 ****        0.0000 
     30 C           2.5224   -0.0122    3.5223 C.3       1 ****        0.0000 
     31 C          -1.8301   -0.3370   -1.6279 C.3       1 ****        0.0000 
     32 C           0.5757   -1.4055    0.9393 C.3       1 ****        0.0000 
     33 C          -2.2974   -1.0754   -5.1734 C.3       1 ****        0.0000 
     34 C          -1.6429    0.0359   -3.1006 C.3       1 ****        0.0000 
     35 C          -0.8477   -1.2590    0.4034 C.3       1 ****        0.0000 
     36 H          -0.6209   -0.1726   -3.4289 H         1 ****        0.0000 
     37 H          -1.3974   -0.4957    0.9661 H         1 ****        0.0000 
     38 H          -2.1945   -3.8978    5.7308 H         1 ****        0.0000 
     39 H          -3.6487   -2.1708    4.6915 H         1 ****        0.0000 
     40 H          -0.4951   -5.0705    4.3500 H         1 ****        0.0000 
     41 H          -3.3950   -1.6177    2.2898 H         1 ****        0.0000 
     42 H          -0.2332   -4.5009    1.9534 H         1 ****        0.0000 
     43 H           0.4440    2.5622   -4.1172 H         1 ****        0.0000 
     44 H          -2.2841    2.4833   -0.8057 H         1 ****        0.0000 
     45 H           2.9833   -0.0719    0.8258 H         1 ****        0.0000 
     46 H           2.2175    2.5921    4.1140 H         1 ****        0.0000 
     47 H           2.1321    3.7313   -2.6973 H         1 ****        0.0000 
     48 H          -0.5907    3.6429    0.6077 H         1 ****        0.0000 
     49 H           2.6955    1.7917   -0.7574 H         1 ****        0.0000 
     50 H           1.8787    4.4743    2.4903 H         1 ****        0.0000 
     51 H          -2.9990    1.7014   -3.0233 H         1 ****        0.0000 
     52 H          -1.8802    1.7184   -4.4026 H         1 ****        0.0000 
     53 H           2.7066   -1.7798    2.2685 H         1 ****        0.0000 
     54 H           1.8550   -2.0238    3.8117 H         1 ****        0.0000 
     55 H          -1.0188   -3.3679   -0.0218 H         1 ****        0.0000 
     56 H          -2.5566   -2.4845    0.0198 H         1 ****        0.0000 
     57 H          -0.0875   -0.9309    2.8016 H         1 ****        0.0000 
     58 H           0.1205   -0.9965   -1.4574 H         1 ****        0.0000 
     59 H          -3.4692   -0.9722   -3.4982 H         1 ****        0.0000 
     60 O          -3.3357   -1.7340   -5.7118 O.3       1 ****        0.0000 
     61 C          -3.3116   -2.1615   -7.1102 C.3       1 ****        0.0000 
     62 C          -4.6574   -2.8599   -7.2700 C.3       1 ****        0.0000 
     63 H          -4.7613   -3.2309   -8.2921 H         1 ****        0.0000 
     64 H          -4.7330   -3.7048   -6.5805 H         1 ****        0.0000 
     65 H          -5.4754   -2.1630   -7.0644 H         1 ****        0.0000 
     66 C          -3.2262   -0.9464   -8.0297 C.3       1 ****        0.0000 
     67 H          -4.0215   -0.2359   -7.7875 H         1 ****        0.0000 
     68 H          -2.2599   -0.4495   -7.9422 H         1 ****        0.0000 
     69 H          -3.3620   -1.2738   -9.0646 H         1 ****        0.0000 
     70 C          -2.1681   -3.1452   -7.3382 C.3       1 ****        0.0000 
     71 H          -1.1979   -2.6559   -7.2470 H         1 ****        0.0000 
     72 H          -2.2275   -3.9652   -6.6151 H         1 ****        0.0000 
     73 H          -2.2562   -3.5682   -8.3437 H         1 ****        0.0000 
@<TRIPOS>BOND
     1    1   23 1    
     2    1   32 1    
     3    1   57 1    
     4    2   30 1    
     5    3    6 1    
     6    3    9 1    
     7    3   38 1    
     8    4   31 1    
     9    4   35 1    
    10    4   58 1    
    11    5   31 1    
    12    6   11 1    
    13    6   39 1    
    14    7   33 1    
    15    7   34 1    
    16    7   59 1    
    17    8   32 1    
    18    9   13 1    
    19    9   40 1    
    20   10   33 1    
    21   11   26 1    
    22   11   41 1    
    23   12   28 1    
    24   12   29 1    
    25   13   26 1    
    26   13   42 1    
    27   14   18 1    
    28   14   25 1    
    29   14   43 1    
    30   15   19 1    
    31   15   25 1    
    32   15   44 1    
    33   16   20 1    
    34   16   27 1    
    35   16   45 1    
    36   17   21 1    
    37   17   27 1    
    38   17   46 1    
    39   18   28 1    
    40   18   47 1    
    41   19   28 1    
    42   19   48 1    
    43   20   29 1    
    44   20   49 1    
    45   21   29 1    
    46   21   50 1    
    47   22   25 1    
    48   22   34 1    
    49   22   51 1    
    50   22   52 1    
    51   23   30 1    
    52   23   53 1    
    53   23   54 1    
    54   24   26 1    
    55   24   35 1    
    56   24   55 1    
    57   24   56 1    
    58   27   30 1    
    59   31   34 1    
    60   32   35 1    
    61   33   60 1    
    62   34   36 1    
    63   35   37 1    
    64   60   61 1    
    65   61   62 1    
    66   61   66 1    
    67   61   70 1    
    68   62   63 1    
    69   62   64 1    
    70   62   65 1    
    71   66   67 1    
    72   66   68 1    
    73   66   69 1    
    74   70   71 1    
    75   70   72 1    
    76   70   73 1    
@<TRIPOS>SUBSTRUCTURE
     1 ****        1 GROUP             0       ****    0 ROOT    
@<TRIPOS>MOLECULE
Cpd3-5
73   76    1
SMALL
USER_CHARGES


@<TRIPOS>ATOM
      1 N           0.7345   -1.2019    2.2741 N.3       1 ****        0.0000 
      2 O           2.8091    0.1116    4.6941 O.3       1 ****        0.0000 
      3 C          -1.9406   -4.0429    4.5196 C.3       1 ****        0.0000 
      4 N          -0.7167   -0.8387   -0.9507 N.3       1 ****        0.0000 
      5 O          -2.8402   -0.0427   -1.0075 O.3       1 ****        0.0000 
      6 C          -2.8125   -3.0772    4.0146 C.3       1 ****        0.0000 
      7 N          -2.4193   -0.8286   -3.8588 N.3       1 ****        0.0000 
      8 O           1.4949   -1.8958    0.2448 O.3       1 ****        0.0000 
      9 C          -0.9671   -4.5977    3.6872 C.3       1 ****        0.0000 
     10 O          -0.9974   -2.5918   -3.5985 O.3       1 ****        0.0000 
     11 C          -2.7072   -2.6673    2.6857 C.3       1 ****        0.0000 
     12 O           1.8503    4.2069   -0.1344 O.3       1 ****        0.0000 
     13 C          -0.8634   -4.1823    2.3596 C.3       1 ****        0.0000 
     14 C           0.2003    2.8227   -3.1072 C.3       1 ****        0.0000 
     15 C          -1.3427    2.8093   -1.2593 C.3       1 ****        0.0000 
     16 C           2.3485    2.4336    3.0266 C.3       1 ****        0.0000 
     17 C           2.6823    0.8989    1.1873 C.3       1 ****        0.0000 
     18 C           1.1501    3.4835   -2.3254 C.3       1 ****        0.0000 
     19 C          -0.4049    3.4617   -0.4677 C.3       1 ****        0.0000 
     20 C           2.1678    3.4834    2.1274 C.3       1 ****        0.0000 
     21 C           2.5255    1.9380    0.2877 C.3       1 ****        0.0000 
     22 C          -1.9547    1.5220   -3.3397 C.3       1 ****        0.0000 
     23 C           1.9865   -1.3525    2.9933 C.3       1 ****        0.0000 
     24 C          -1.5678   -2.6989    0.4374 C.3       1 ****        0.0000 
     25 C          -1.0334    2.4380   -2.5730 C.3       1 ****        0.0000 
     26 C          -1.7302   -3.2135    1.8454 C.3       1 ****        0.0000 
     27 C           2.5532    1.1305    2.5624 C.3       1 ****        0.0000 
     28 C           0.8527    3.7465   -0.9947 C.3       1 ****        0.0000 
     29 C           2.2035    3.2126    0.7618 C.3       1 ****        0.0000 
     30 C           2.5094   -0.0073    3.5208 C.3       1 ****        0.0000 
     31 C          -1.7739   -0.2762   -1.5729 C.3       1 ****        0.0000 
     32 C           0.5814   -1.4986    0.9654 C.3       1 ****        0.0000 
     33 C          -2.0760   -2.1487   -3.9591 C.3       1 ****        0.0000 
     34 C          -1.5863    0.0566   -3.0636 C.3       1 ****        0.0000 
     35 C          -0.8302   -1.3381    0.4055 C.3       1 ****        0.0000 
     36 H          -0.5456   -0.1195   -3.3543 H         1 ****        0.0000 
     37 H          -1.3987   -0.6045    0.9868 H         1 ****        0.0000 
     38 H          -2.0220   -4.3649    5.5524 H         1 ****        0.0000 
     39 H          -3.5770   -2.6474    4.6538 H         1 ****        0.0000 
     40 H          -0.2881   -5.3514    4.0722 H         1 ****        0.0000 
     41 H          -3.3910   -1.9175    2.2927 H         1 ****        0.0000 
     42 H          -0.0980   -4.6093    1.7161 H         1 ****        0.0000 
     43 H           0.4441    2.5631   -4.1346 H         1 ****        0.0000 
     44 H          -2.3072    2.5369   -0.8403 H         1 ****        0.0000 
     45 H           2.2667    2.6070    4.0951 H         1 ****        0.0000 
     46 H           2.8714   -0.1009    0.8082 H         1 ****        0.0000 
     47 H           2.1301    3.7328   -2.7167 H         1 ****        0.0000 
     48 H          -0.6136    3.6975    0.5718 H         1 ****        0.0000 
     49 H           1.9353    4.4868    2.4664 H         1 ****        0.0000 
     50 H           2.5828    1.7567   -0.7799 H         1 ****        0.0000 
     51 H          -2.9946    1.6836   -3.0379 H         1 ****        0.0000 
     52 H          -1.8747    1.6921   -4.4176 H         1 ****        0.0000 
     53 H           2.7117   -1.7977    2.3055 H         1 ****        0.0000 
     54 H           1.8614   -2.0174    3.8509 H         1 ****        0.0000 
     55 H          -0.9994   -3.4057   -0.1757 H         1 ****        0.0000 
     56 H          -2.5430   -2.5423   -0.0356 H         1 ****        0.0000 
     57 H          -0.0865   -0.9375    2.8029 H         1 ****        0.0000 
     58 H           0.0694   -1.1750   -1.4969 H         1 ****        0.0000 
     59 H          -3.4026   -0.6062   -3.9479 H         1 ****        0.0000 
     60 O          -3.0706   -2.8486   -4.5202 O.3       1 ****        0.0000 
     61 C          -2.9506   -4.2934   -4.7199 C.3       1 ****        0.0000 
     62 C          -4.2928   -4.6574   -5.3440 C.3       1 ****        0.0000 
     63 H          -4.3272   -5.7305   -5.5473 H         1 ****        0.0000 
     64 H          -5.1118   -4.4017   -4.6657 H         1 ****        0.0000 
     65 H          -4.4348   -4.1183   -6.2850 H         1 ****        0.0000 
     66 C          -1.8096   -4.5970   -5.6860 C.3       1 ****        0.0000 
     67 H          -1.9372   -4.0225   -6.6082 H         1 ****        0.0000 
     68 H          -0.8412   -4.3591   -5.2446 H         1 ****        0.0000 
     69 H          -1.8311   -5.6604   -5.9394 H         1 ****        0.0000 
     70 C          -2.7774   -4.9934   -3.3751 C.3       1 ****        0.0000 
     71 H          -1.8094   -4.7648   -2.9290 H         1 ****        0.0000 
     72 H          -3.5729   -4.6878   -2.6876 H         1 ****        0.0000 
     73 H          -2.8510   -6.0754   -3.5240 H         1 ****        0.0000 
@<TRIPOS>BOND
     1    1   23 1    
     2    1   32 1    
     3    1   57 1    
     4    2   30 1    
     5    3    6 1    
     6    3    9 1    
     7    3   38 1    
     8    4   31 1    
     9    4   35 1    
    10    4   58 1    
    11    5   31 1    
    12    6   11 1    
    13    6   39 1    
    14    7   33 1    
    15    7   34 1    
    16    7   59 1    
    17    8   32 1    
    18    9   13 1    
    19    9   40 1    
    20   10   33 1    
    21   11   26 1    
    22   11   41 1    
    23   12   28 1    
    24   12   29 1    
    25   13   26 1    
    26   13   42 1    
    27   14   18 1    
    28   14   25 1    
    29   14   43 1    
    30   15   19 1    
    31   15   25 1    
    32   15   44 1    
    33   16   20 1    
    34   16   27 1    
    35   16   45 1    
    36   17   21 1    
    37   17   27 1    
    38   17   46 1    
    39   18   28 1    
    40   18   47 1    
    41   19   28 1    
    42   19   48 1    
    43   20   29 1    
    44   20   49 1    
    45   21   29 1    
    46   21   50 1    
    47   22   25 1    
    48   22   34 1    
    49   22   51 1    
    50   22   52 1    
    51   23   30 1    
    52   23   53 1    
    53   23   54 1    
    54   24   26 1    
    55   24   35 1    
    56   24   55 1    
    57   24   56 1    
    58   27   30 1    
    59   31   34 1    
    60   32   35 1    
    61   33   60 1    
    62   34   36 1    
    63   35   37 1    
    64   60   61 1    
    65   61   62 1    
    66   61   66 1    
    67   61   70 1    
    68   62   63 1    
    69   62   64 1    
    70   62   65 1    
    71   66   67 1    
    72   66   68 1    
    73   66   69 1    
    74   70   71 1    
    75   70   72 1    
    76   70   73 1    
@<TRIPOS>SUBSTRUCTURE
     1 ****        1 GROUP             0       ****    0 ROOT    
@<TRIPOS>MOLECULE
Cpd3-6
73   76    1
SMALL
USER_CHARGES


@<TRIPOS>ATOM
      1 N           1.8606   -1.6674    1.4593 N.3       1 ****        0.0000 
      2 O           2.1153   -0.0014    4.6015 O.3       1 ****        0.0000 
      3 C           4.4087   -3.9470   -1.9303 C.3       1 ****        0.0000 
      4 N          -0.8787   -0.3943   -0.5571 N.3       1 ****        0.0000 
      5 O          -1.3749   -1.0871   -2.6612 O.3       1 ****        0.0000 
      6 C           3.0611   -4.2276   -2.1621 C.3       1 ****        0.0000 
      7 N          -3.1525    1.1353   -0.4266 N.3       1 ****        0.0000 
      8 O          -0.0596   -0.5892    1.9192 O.3       1 ****        0.0000 
      9 C           4.7839   -2.6699   -1.5179 C.3       1 ****        0.0000 
     10 O          -4.3659   -0.6906    0.1890 O.3       1 ****        0.0000 
     11 C           2.0954   -3.2404   -1.9727 C.3       1 ****        0.0000 
     12 O           2.1250    4.0138   -0.3809 O.3       1 ****        0.0000 
     13 C           3.8143   -1.6848   -1.3285 C.3       1 ****        0.0000 
     14 C           0.0010    2.0932   -2.6735 C.3       1 ****        0.0000 
     15 C          -1.3740    3.6215   -1.4277 C.3       1 ****        0.0000 
     16 C           3.2723    1.0085    1.3745 C.3       1 ****        0.0000 
     17 C           1.6246    2.1437    2.7304 C.3       1 ****        0.0000 
     18 C           1.1417    2.6340   -2.0898 C.3       1 ****        0.0000 
     19 C          -0.2382    4.1694   -0.8295 C.3       1 ****        0.0000 
     20 C           3.2363    2.0498    0.4499 C.3       1 ****        0.0000 
     21 C           1.5618    3.1732    1.7997 C.3       1 ****        0.0000 
     22 C          -2.4911    1.7459   -2.7232 C.3       1 ****        0.0000 
     23 C           2.3328   -1.5589    2.8259 C.3       1 ****        0.0000 
     24 C           1.4109   -0.8840   -1.3496 C.3       1 ****        0.0000 
     25 C          -1.2744    2.5340   -2.3026 C.3       1 ****        0.0000 
     26 C           2.4592   -1.9563   -1.5452 C.3       1 ****        0.0000 
     27 C           2.4395    1.0318    2.4951 C.3       1 ****        0.0000 
     28 C           1.0067    3.6254   -1.1231 C.3       1 ****        0.0000 
     29 C           2.3304    3.0899    0.6398 C.3       1 ****        0.0000 
     30 C           2.2939   -0.1394    3.4077 C.3       1 ****        0.0000 
     31 C          -1.6210   -0.3855   -1.6801 C.3       1 ****        0.0000 
     32 C           0.6660   -1.1487    1.1020 C.3       1 ****        0.0000 
     33 C          -3.9215    0.4156    0.4412 C.3       1 ****        0.0000 
     34 C          -2.7965    0.6038   -1.7227 C.3       1 ****        0.0000 
     35 C           0.2674   -1.2622   -0.3785 C.3       1 ****        0.0000 
     36 H          -3.6467    0.0288   -2.0992 H         1 ****        0.0000 
     37 H          -0.0386   -2.3000   -0.5675 H         1 ****        0.0000 
     38 H           5.1593   -4.7162   -2.0775 H         1 ****        0.0000 
     39 H           2.7610   -5.2155   -2.4947 H         1 ****        0.0000 
     40 H           5.8303   -2.4368   -1.3463 H         1 ****        0.0000 
     41 H           1.0506   -3.4656   -2.1739 H         1 ****        0.0000 
     42 H           4.1125   -0.6861   -1.0174 H         1 ****        0.0000 
     43 H           0.0952    1.2834   -3.3917 H         1 ****        0.0000 
     44 H          -2.3525    4.0304   -1.1831 H         1 ****        0.0000 
     45 H           3.9356    0.1629    1.2069 H         1 ****        0.0000 
     46 H           0.9953    2.1585    3.6137 H         1 ****        0.0000 
     47 H           2.1293    2.2585   -2.3399 H         1 ****        0.0000 
     48 H          -0.3173    4.9791   -0.1111 H         1 ****        0.0000 
     49 H           3.8580    2.0374   -0.4408 H         1 ****        0.0000 
     50 H           0.8857    4.0107    1.9347 H         1 ****        0.0000 
     51 H          -3.3781    2.3847   -2.7826 H         1 ****        0.0000 
     52 H          -2.3329    1.2874   -3.7019 H         1 ****        0.0000 
     53 H           3.3664   -1.9167    2.8558 H         1 ****        0.0000 
     54 H           1.7405   -2.1780    3.5053 H         1 ****        0.0000 
     55 H           1.8739    0.0468   -1.0044 H         1 ****        0.0000 
     56 H           0.9365   -0.6832   -2.3134 H         1 ****        0.0000 
     57 H           2.4448   -2.1165    0.7660 H         1 ****        0.0000 
     58 H          -1.1681    0.1454    0.2503 H         1 ****        0.0000 
     59 H          -2.7830    2.0237   -0.1138 H         1 ****        0.0000 
     60 O          -4.1007    1.1042    1.5780 O.3       1 ****        0.0000 
     61 C          -4.8208    0.5124    2.7070 C.3       1 ****        0.0000 
     62 C          -6.2734    0.2528    2.3208 C.3       1 ****        0.0000 
     63 H          -6.8306   -0.0514    3.2124 H         1 ****        0.0000 
     64 H          -6.7279    1.1669    1.9280 H         1 ****        0.0000 
     65 H          -6.3495   -0.5373    1.5726 H         1 ****        0.0000 
     66 C          -4.1062   -0.7505    3.1783 C.3       1 ****        0.0000 
     67 H          -4.1869   -1.5515    2.4430 H         1 ****        0.0000 
     68 H          -3.0499   -0.5385    3.3646 H         1 ****        0.0000 
     69 H          -4.5608   -1.0866    4.1158 H         1 ****        0.0000 
     70 C          -4.7339    1.6047    3.7672 C.3       1 ****        0.0000 
     71 H          -3.6895    1.8130    4.0145 H         1 ****        0.0000 
     72 H          -5.2031    2.5245    3.4079 H         1 ****        0.0000 
     73 H          -5.2498    1.2788    4.6746 H         1 ****        0.0000 
@<TRIPOS>BOND
     1    1   23 1    
     2    1   32 1    
     3    1   57 1    
     4    2   30 1    
     5    3    6 1    
     6    3    9 1    
     7    3   38 1    
     8    4   31 1    
     9    4   35 1    
    10    4   58 1    
    11    5   31 1    
    12    6   11 1    
    13    6   39 1    
    14    7   33 1    
    15    7   34 1    
    16    7   59 1    
    17    8   32 1    
    18    9   13 1    
    19    9   40 1    
    20   10   33 1    
    21   11   26 1    
    22   11   41 1    
    23   12   28 1    
    24   12   29 1    
    25   13   26 1    
    26   13   42 1    
    27   14   18 1    
    28   14   25 1    
    29   14   43 1    
    30   15   19 1    
    31   15   25 1    
    32   15   44 1    
    33   16   20 1    
    34   16   27 1    
    35   16   45 1    
    36   17   21 1    
    37   17   27 1    
    38   17   46 1    
    39   18   28 1    
    40   18   47 1    
    41   19   28 1    
    42   19   48 1    
    43   20   29 1    
    44   20   49 1    
    45   21   29 1    
    46   21   50 1    
    47   22   25 1    
    48   22   34 1    
    49   22   51 1    
    50   22   52 1    
    51   23   30 1    
    52   23   53 1    
    53   23   54 1    
    54   24   26 1    
    55   24   35 1    
    56   24   55 1    
    57   24   56 1    
    58   27   30 1    
    59   31   34 1    
    60   32   35 1    
    61   33   60 1    
    62   34   36 1    
    63   35   37 1    
    64   60   61 1    
    65   61   62 1    
    66   61   66 1    
    67   61   70 1    
    68   62   63 1    
    69   62   64 1    
    70   62   65 1    
    71   66   67 1    
    72   66   68 1    
    73   66   69 1    
    74   70   71 1    
    75   70   72 1    
    76   70   73 1    
@<TRIPOS>SUBSTRUCTURE
     1 ****        1 GROUP             0       ****    0 ROOT    
@<TRIPOS>MOLECULE
Cpd3-7
73   76    1
SMALL
USER_CHARGES


@<TRIPOS>ATOM
      1 N           1.8460   -1.6550    1.4520 N.3       1 ****        0.0000 
      2 O           2.1380   -0.0080    4.6060 O.3       1 ****        0.0000 
      3 C           4.3650   -3.9870   -1.9090 C.3       1 ****        0.0000 
      4 N          -0.8770   -0.3570   -0.5780 N.3       1 ****        0.0000 
      5 O          -1.4010   -1.1530   -2.6350 O.3       1 ****        0.0000 
      6 C           3.0150   -4.2510   -2.1450 C.3       1 ****        0.0000 
      7 N          -3.2240    1.0970   -0.4830 N.3       1 ****        0.0000 
      8 O          -0.0640   -0.5540    1.9090 O.3       1 ****        0.0000 
      9 C           4.7570   -2.7120   -1.5050 C.3       1 ****        0.0000 
     10 O          -4.1860    0.7990    1.5610 O.3       1 ****        0.0000 
     11 C           2.0630   -3.2500   -1.9680 C.3       1 ****        0.0000 
     12 O           2.1240    4.0150   -0.3710 O.3       1 ****        0.0000 
     13 C           3.8000   -1.7120   -1.3280 C.3       1 ****        0.0000 
     14 C           0.0080    2.1000   -2.6770 C.3       1 ****        0.0000 
     15 C          -1.3760    3.6000   -1.4080 C.3       1 ****        0.0000 
     16 C           3.2730    1.0040    1.3720 C.3       1 ****        0.0000 
     17 C           1.6450    2.1480    2.7450 C.3       1 ****        0.0000 
     18 C           1.1470    2.6430   -2.0900 C.3       1 ****        0.0000 
     19 C          -0.2440    4.1490   -0.8060 C.3       1 ****        0.0000 
     20 C           3.2340    2.0470    0.4490 C.3       1 ****        0.0000 
     21 C           1.5790    3.1790    1.8170 C.3       1 ****        0.0000 
     22 C          -2.4810    1.7450   -2.7420 C.3       1 ****        0.0000 
     23 C           2.3200   -1.5580    2.8190 C.3       1 ****        0.0000 
     24 C           1.4070   -0.8810   -1.3630 C.3       1 ****        0.0000 
     25 C          -1.2700    2.5270   -2.2990 C.3       1 ****        0.0000 
     26 C           2.4420   -1.9680   -1.5490 C.3       1 ****        0.0000 
     27 C           2.4500    1.0320    2.5000 C.3       1 ****        0.0000 
     28 C           1.0050    3.6210   -1.1110 C.3       1 ****        0.0000 
     29 C           2.3350    3.0910    0.6490 C.3       1 ****        0.0000 
     30 C           2.3020   -0.1410    3.4100 C.3       1 ****        0.0000 
     31 C          -1.6340   -0.4000   -1.6900 C.3       1 ****        0.0000 
     32 C           0.6590   -1.1210    1.0940 C.3       1 ****        0.0000 
     33 C          -3.8380    0.3500    0.4820 C.3       1 ****        0.0000 
     34 C          -2.8120    0.5830   -1.7740 C.3       1 ****        0.0000 
     35 C           0.2610   -1.2330   -0.3860 C.3       1 ****        0.0000 
     36 H          -3.6320    0.0050   -2.2110 H         1 ****        0.0000 
     37 H          -0.0600   -2.2680   -0.5690 H         1 ****        0.0000 
     38 H           5.1060   -4.7680   -2.0460 H         1 ****        0.0000 
     39 H           2.7030   -5.2380   -2.4720 H         1 ****        0.0000 
     40 H           5.8050   -2.4930   -1.3300 H         1 ****        0.0000 
     41 H           1.0160   -3.4610   -2.1720 H         1 ****        0.0000 
     42 H           4.1100   -0.7150   -1.0230 H         1 ****        0.0000 
     43 H           0.1080    1.3010   -3.4080 H         1 ****        0.0000 
     44 H          -2.3550    4.0030   -1.1580 H         1 ****        0.0000 
     45 H           3.9290    0.1550    1.1970 H         1 ****        0.0000 
     46 H           1.0220    2.1640    3.6340 H         1 ****        0.0000 
     47 H           2.1360    2.2790   -2.3490 H         1 ****        0.0000 
     48 H          -0.3280    4.9480   -0.0760 H         1 ****        0.0000 
     49 H           3.8480    2.0320   -0.4470 H         1 ****        0.0000 
     50 H           0.9090    4.0200    1.9600 H         1 ****        0.0000 
     51 H          -3.3660    2.3850   -2.8080 H         1 ****        0.0000 
     52 H          -2.3110    1.3030   -3.7280 H         1 ****        0.0000 
     53 H           3.3480   -1.9320    2.8480 H         1 ****        0.0000 
     54 H           1.7170   -2.1700    3.4970 H         1 ****        0.0000 
     55 H           1.8820    0.0480   -1.0290 H         1 ****        0.0000 
     56 H           0.9320   -0.6840   -2.3280 H         1 ****        0.0000 
     57 H           2.4280   -2.1050    0.7580 H         1 ****        0.0000 
     58 H          -1.1400    0.2350    0.2020 H         1 ****        0.0000 
     59 H          -3.0720    2.0670   -0.2440 H         1 ****        0.0000 
     60 O          -3.9850   -0.9150    0.0650 O.3       1 ****        0.0000 
     61 C          -4.3940   -1.9730    0.9890 C.3       1 ****        0.0000 
     62 C          -3.4090   -2.0480    2.1510 C.3       1 ****        0.0000 
     63 H          -3.6130   -2.9510    2.7340 H         1 ****        0.0000 
     64 H          -2.3830   -2.1030    1.7710 H         1 ****        0.0000 
     65 H          -3.4940   -1.1790    2.8050 H         1 ****        0.0000 
     66 C          -5.8290   -1.7410    1.4490 C.3       1 ****        0.0000 
     67 H          -5.9020   -0.8490    2.0730 H         1 ****        0.0000 
     68 H          -6.4890   -1.6310    0.5840 H         1 ****        0.0000 
     69 H          -6.1620   -2.6070    2.0280 H         1 ****        0.0000 
     70 C          -4.2970   -3.2220    0.1200 C.3       1 ****        0.0000 
     71 H          -4.9650   -3.1400   -0.7420 H         1 ****        0.0000 
     72 H          -3.2730   -3.3540   -0.2410 H         1 ****        0.0000 
     73 H          -4.5820   -4.1020    0.7030 H         1 ****        0.0000 
@<TRIPOS>BOND
     1    1   23 1    
     2    1   32 1    
     3    1   57 1    
     4    2   30 1    
     5    3    6 1    
     6    3    9 1    
     7    3   38 1    
     8    4   31 1    
     9    4   35 1    
    10    4   58 1    
    11    5   31 1    
    12    6   11 1    
    13    6   39 1    
    14    7   33 1    
    15    7   34 1    
    16    7   59 1    
    17    8   32 1    
    18    9   13 1    
    19    9   40 1    
    20   10   33 1    
    21   11   26 1    
    22   11   41 1    
    23   12   28 1    
    24   12   29 1    
    25   13   26 1    
    26   13   42 1    
    27   14   18 1    
    28   14   25 1    
    29   14   43 1    
    30   15   19 1    
    31   15   25 1    
    32   15   44 1    
    33   16   20 1    
    34   16   27 1    
    35   16   45 1    
    36   17   21 1    
    37   17   27 1    
    38   17   46 1    
    39   18   28 1    
    40   18   47 1    
    41   19   28 1    
    42   19   48 1    
    43   20   29 1    
    44   20   49 1    
    45   21   29 1    
    46   21   50 1    
    47   22   25 1    
    48   22   34 1    
    49   22   51 1    
    50   22   52 1    
    51   23   30 1    
    52   23   53 1    
    53   23   54 1    
    54   24   26 1    
    55   24   35 1    
    56   24   55 1    
    57   24   56 1    
    58   27   30 1    
    59   31   34 1    
    60   32   35 1    
    61   33   60 1    
    62   34   36 1    
    63   35   37 1    
    64   60   61 1    
    65   61   62 1    
    66   61   66 1    
    67   61   70 1    
    68   62   63 1    
    69   62   64 1    
    70   62   65 1    
    71   66   67 1    
    72   66   68 1    
    73   66   69 1    
    74   70   71 1    
    75   70   72 1    
    76   70   73 1    
@<TRIPOS>SUBSTRUCTURE
     1 ****        1 GROUP             0       ****    0 ROOT    
@<TRIPOS>MOLECULE
Cpd3-8
73   76    1
SMALL
USER_CHARGES


@<TRIPOS>ATOM
      1 N           0.3432   -0.8874    2.6628 N.3       1 ****        0.0000 
      2 O           3.8683   -0.8280    3.1787 O.3       1 ****        0.0000 
      3 C          -2.6575   -3.2962    4.8632 C.3       1 ****        0.0000 
      4 N          -0.8002   -0.6631   -0.7505 N.3       1 ****        0.0000 
      5 O          -2.9709   -0.1347   -1.1235 O.3       1 ****        0.0000 
      6 C          -3.4135   -2.3536    4.1640 C.3       1 ****        0.0000 
      7 N          -2.3704   -0.9691   -3.7593 N.3       1 ****        0.0000 
      8 O           1.3664   -1.3531    0.7009 O.3       1 ****        0.0000 
      9 C          -1.6205   -3.9681    4.2158 C.3       1 ****        0.0000 
     10 O          -1.0002   -1.0463   -5.5789 O.3       1 ****        0.0000 
     11 C          -3.1288   -2.0829    2.8258 C.3       1 ****        0.0000 
     12 O           1.7316    4.2788   -0.0084 O.3       1 ****        0.0000 
     13 C          -1.3366   -3.6917    2.8782 C.3       1 ****        0.0000 
     14 C           0.4858    2.4202   -2.9195 C.3       1 ****        0.0000 
     15 C          -1.3761    3.0374   -1.5249 C.3       1 ****        0.0000 
     16 C           1.5090    1.8331    2.7013 C.3       1 ****        0.0000 
     17 C           3.4833    1.3800    1.3797 C.3       1 ****        0.0000 
     18 C           1.3530    3.1166   -2.0833 C.3       1 ****        0.0000 
     19 C          -0.5195    3.7456   -0.6841 C.3       1 ****        0.0000 
     20 C           1.2729    2.9848    1.9605 C.3       1 ****        0.0000 
     21 C           3.2408    2.5170    0.6178 C.3       1 ****        0.0000 
     22 C          -1.7686    1.4121   -3.4166 C.3       1 ****        0.0000 
     23 C           1.5333   -1.1289    3.4544 C.3       1 ****        0.0000 
     24 C          -1.7368   -2.3859    0.7484 C.3       1 ****        0.0000 
     25 C          -0.8806    2.3378   -2.6285 C.3       1 ****        0.0000 
     26 C          -2.0845   -2.7451    2.1706 C.3       1 ****        0.0000 
     27 C           2.5885    1.0029    2.3856 C.3       1 ****        0.0000 
     28 C           0.8455    3.7383   -0.9463 C.3       1 ****        0.0000 
     29 C           2.1024    3.2752    0.8800 C.3       1 ****        0.0000 
     30 C           2.7698   -0.3341    3.0161 C.3       1 ****        0.0000 
     31 C          -1.8230   -0.2840   -1.5413 C.3       1 ****        0.0000 
     32 C           0.3433   -1.0889    1.3273 C.3       1 ****        0.0000 
     33 C          -2.0625   -1.3141   -5.0402 C.3       1 ****        0.0000 
     34 C          -1.5140   -0.0587   -3.0215 C.3       1 ****        0.0000 
     35 C          -1.0173   -1.0149    0.6384 C.3       1 ****        0.0000 
     36 H          -0.4764   -0.3220   -3.2455 H         1 ****        0.0000 
     37 H          -1.6412   -0.2430    1.1027 H         1 ****        0.0000 
     38 H          -2.8803   -3.5094    5.9045 H         1 ****        0.0000 
     39 H          -4.2285   -1.8343    4.6587 H         1 ****        0.0000 
     40 H          -1.0316   -4.7059    4.7505 H         1 ****        0.0000 
     41 H          -3.7246   -1.3540    2.2802 H         1 ****        0.0000 
     42 H          -0.5200   -4.2073    2.3800 H         1 ****        0.0000 
     43 H           0.8806    1.9066   -3.7932 H         1 ****        0.0000 
     44 H          -2.4386    2.9978   -1.2997 H         1 ****        0.0000 
     45 H           0.8318    1.5722    3.5088 H         1 ****        0.0000 
     46 H           4.3305    0.7372    1.1604 H         1 ****        0.0000 
     47 H           2.4196    3.1476   -2.2813 H         1 ****        0.0000 
     48 H          -0.8976    4.2645    0.1906 H         1 ****        0.0000 
     49 H           0.4225    3.6226    2.1722 H         1 ****        0.0000 
     50 H           3.8871    2.7888   -0.2107 H         1 ****        0.0000 
     51 H          -2.8240    1.6348   -3.2331 H         1 ****        0.0000 
     52 H          -1.5778    1.4948   -4.4917 H         1 ****        0.0000 
     53 H           1.8243   -2.1835    3.4249 H         1 ****        0.0000 
     54 H           1.3064   -0.8685    4.4928 H         1 ****        0.0000 
     55 H          -1.0870   -3.1468    0.3034 H         1 ****        0.0000 
     56 H          -2.6436   -2.3118    0.1400 H         1 ****        0.0000 
     57 H          -0.5387   -0.7462    3.1369 H         1 ****        0.0000 
     58 H           0.1309   -0.8129   -1.1230 H         1 ****        0.0000 
     59 H          -3.3270   -1.0754   -3.4468 H         1 ****        0.0000 
     60 O          -3.0786   -1.9949   -5.5938 O.3       1 ****        0.0000 
     61 C          -2.9817   -2.5112   -6.9579 C.3       1 ****        0.0000 
     62 C          -1.8449   -3.5232   -7.0564 C.3       1 ****        0.0000 
     63 H          -1.8820   -4.0077   -8.0375 H         1 ****        0.0000 
     64 H          -0.8733   -3.0423   -6.9381 H         1 ****        0.0000 
     65 H          -1.9616   -4.2942   -6.2894 H         1 ****        0.0000 
     66 C          -4.3288   -3.1973   -7.1527 C.3       1 ****        0.0000 
     67 H          -4.4601   -3.9957   -6.4166 H         1 ****        0.0000 
     68 H          -5.1442   -2.4777   -7.0400 H         1 ****        0.0000 
     69 H          -4.3807   -3.6322   -8.1547 H         1 ****        0.0000 
     70 C          -2.8213   -1.3583   -7.9457 C.3       1 ****        0.0000 
     71 H          -3.6171   -0.6212   -7.7948 H         1 ****        0.0000 
     72 H          -1.8530   -0.8706   -7.8338 H         1 ****        0.0000 
     73 H          -2.9049   -1.7479   -8.9644 H         1 ****        0.0000 
@<TRIPOS>BOND
     1    1   23 1    
     2    1   32 1    
     3    1   57 1    
     4    2   30 1    
     5    3    6 1    
     6    3    9 1    
     7    3   38 1    
     8    4   31 1    
     9    4   35 1    
    10    4   58 1    
    11    5   31 1    
    12    6   11 1    
    13    6   39 1    
    14    7   33 1    
    15    7   34 1    
    16    7   59 1    
    17    8   32 1    
    18    9   13 1    
    19    9   40 1    
    20   10   33 1    
    21   11   26 1    
    22   11   41 1    
    23   12   28 1    
    24   12   29 1    
    25   13   26 1    
    26   13   42 1    
    27   14   18 1    
    28   14   25 1    
    29   14   43 1    
    30   15   19 1    
    31   15   25 1    
    32   15   44 1    
    33   16   20 1    
    34   16   27 1    
    35   16   45 1    
    36   17   21 1    
    37   17   27 1    
    38   17   46 1    
    39   18   28 1    
    40   18   47 1    
    41   19   28 1    
    42   19   48 1    
    43   20   29 1    
    44   20   49 1    
    45   21   29 1    
    46   21   50 1    
    47   22   25 1    
    48   22   34 1    
    49   22   51 1    
    50   22   52 1    
    51   23   30 1    
    52   23   53 1    
    53   23   54 1    
    54   24   26 1    
    55   24   35 1    
    56   24   55 1    
    57   24   56 1    
    58   27   30 1    
    59   31   34 1    
    60   32   35 1    
    61   33   60 1    
    62   34   36 1    
    63   35   37 1    
    64   60   61 1    
    65   61   62 1    
    66   61   66 1    
    67   61   70 1    
    68   62   63 1    
    69   62   64 1    
    70   62   65 1    
    71   66   67 1    
    72   66   68 1    
    73   66   69 1    
    74   70   71 1    
    75   70   72 1    
    76   70   73 1    
@<TRIPOS>SUBSTRUCTURE
     1 ****        1 GROUP             0       ****    0 ROOT    
@<TRIPOS>MOLECULE
Cpd3-9
73   76    1
SMALL
USER_CHARGES


@<TRIPOS>ATOM
      1 N           0.7392   -1.1646    2.2551 N.3       1 ****        0.0000 
      2 O           2.7880    0.0891    4.7060 O.3       1 ****        0.0000 
      3 C          -2.0717   -3.6459    4.6811 C.3       1 ****        0.0000 
      4 N          -0.7565   -0.8186   -0.9803 N.3       1 ****        0.0000 
      5 O          -2.9360   -0.2142   -1.1018 O.3       1 ****        0.0000 
      6 C          -2.8779   -2.6636    4.1026 C.3       1 ****        0.0000 
      7 N          -2.5362   -0.8265   -3.8602 N.3       1 ****        0.0000 
      8 O           1.4953   -1.7292    0.1838 O.3       1 ****        0.0000 
      9 C          -1.1302   -4.3140    3.8990 C.3       1 ****        0.0000 
     10 O          -3.3071   -1.5921   -5.8608 O.3       1 ****        0.0000 
     11 C          -2.7365   -2.3514    2.7507 C.3       1 ****        0.0000 
     12 O           1.8669    4.2001   -0.1216 O.3       1 ****        0.0000 
     13 C          -0.9884   -3.9961    2.5486 C.3       1 ****        0.0000 
     14 C           0.1983    2.8093   -3.0835 C.3       1 ****        0.0000 
     15 C          -1.3184    2.7550   -1.2153 C.3       1 ****        0.0000 
     16 C           2.7785    0.9215    1.2121 C.3       1 ****        0.0000 
     17 C           2.3200    2.4287    3.0479 C.3       1 ****        0.0000 
     18 C           1.1527    3.4665   -2.3047 C.3       1 ****        0.0000 
     19 C          -0.3772    3.4047   -0.4269 C.3       1 ****        0.0000 
     20 C           2.6235    1.9630    0.3138 C.3       1 ****        0.0000 
     21 C           2.1386    3.4786    2.1492 C.3       1 ****        0.0000 
     22 C          -1.9709    1.5329   -3.3204 C.3       1 ****        0.0000 
     23 C           1.9927   -1.3433    2.9647 C.3       1 ****        0.0000 
     24 C          -1.5903   -2.6035    0.5227 C.3       1 ****        0.0000 
     25 C          -1.0283    2.4132   -2.5424 C.3       1 ****        0.0000 
     26 C          -1.7875   -3.0106    1.9615 C.3       1 ****        0.0000 
     27 C           2.5830    1.1364    2.5807 C.3       1 ****        0.0000 
     28 C           0.8681    3.7166   -0.9684 C.3       1 ****        0.0000 
     29 C           2.2338    3.2194    0.7839 C.3       1 ****        0.0000 
     30 C           2.5181   -0.0119    3.5246 C.3       1 ****        0.0000 
     31 C          -1.8349   -0.3425   -1.6335 C.3       1 ****        0.0000 
     32 C           0.5813   -1.3947    0.9340 C.3       1 ****        0.0000 
     33 C          -2.4466   -1.0252   -5.2072 C.3       1 ****        0.0000 
     34 C          -1.6442    0.0381   -3.1036 C.3       1 ****        0.0000 
     35 C          -0.8445   -1.2500    0.4016 C.3       1 ****        0.0000 
     36 H          -0.6166   -0.1603   -3.4199 H         1 ****        0.0000 
     37 H          -1.3930   -0.4874    0.9673 H         1 ****        0.0000 
     38 H          -2.1815   -3.8910    5.7323 H         1 ****        0.0000 
     39 H          -3.6184   -2.1446    4.7022 H         1 ****        0.0000 
     40 H          -0.5033   -5.0835    4.3407 H         1 ****        0.0000 
     41 H          -3.3700   -1.5902    2.3007 H         1 ****        0.0000 
     42 H          -0.2458   -4.5119    1.9446 H         1 ****        0.0000 
     43 H           0.4282    2.5696   -4.1192 H         1 ****        0.0000 
     44 H          -2.2788    2.4730   -0.7898 H         1 ****        0.0000 
     45 H           3.0109   -0.0681    0.8336 H         1 ****        0.0000 
     46 H           2.1895    2.5898    4.1133 H         1 ****        0.0000 
     47 H           2.1254    3.7342   -2.7054 H         1 ****        0.0000 
     48 H          -0.5764    3.6278    0.6170 H         1 ****        0.0000 
     49 H           2.7287    1.7953   -0.7525 H         1 ****        0.0000 
     50 H           1.8566    4.4705    2.4857 H         1 ****        0.0000 
     51 H          -3.0070    1.6973   -3.0079 H         1 ****        0.0000 
     52 H          -1.8970    1.7292   -4.3948 H         1 ****        0.0000 
     53 H           2.7140   -1.7743    2.2630 H         1 ****        0.0000 
     54 H           1.8627   -2.0288    3.8037 H         1 ****        0.0000 
     55 H          -1.0161   -3.3596   -0.0227 H         1 ****        0.0000 
     56 H          -2.5544   -2.4770    0.0223 H         1 ****        0.0000 
     57 H          -0.0864   -0.9533    2.8025 H         1 ****        0.0000 
     58 H           0.1252   -0.9713   -1.4549 H         1 ****        0.0000 
     59 H          -3.4487   -1.0080   -3.4627 H         1 ****        0.0000 
     60 O          -1.2904   -0.5414   -5.6872 O.3       1 ****        0.0000 
     61 C          -0.9650   -0.6313   -7.1102 C.3       1 ****        0.0000 
     62 C          -0.8509   -2.0929   -7.5314 C.3       1 ****        0.0000 
     63 H          -0.4671   -2.1397   -8.5539 H         1 ****        0.0000 
     64 H          -0.1503   -2.6192   -6.8761 H         1 ****        0.0000 
     65 H          -1.8202   -2.5917   -7.4950 H         1 ****        0.0000 
     66 C          -1.9991    0.1335   -7.9306 C.3       1 ****        0.0000 
     67 H          -2.1069    1.1514   -7.5449 H         1 ****        0.0000 
     68 H          -1.6555    0.1951   -8.9675 H         1 ****        0.0000 
     69 H          -2.9691   -0.3636   -7.9093 H         1 ****        0.0000 
     70 C           0.3927    0.0581   -7.1837 C.3       1 ****        0.0000 
     71 H           0.3124    1.0956   -6.8460 H         1 ****        0.0000 
     72 H           1.1203   -0.4623   -6.5548 H         1 ****        0.0000 
     73 H           0.7541    0.0543   -8.2153 H         1 ****        0.0000 
@<TRIPOS>BOND
     1    1   23 1    
     2    1   32 1    
     3    1   57 1    
     4    2   30 1    
     5    3    6 1    
     6    3    9 1    
     7    3   38 1    
     8    4   31 1    
     9    4   35 1    
    10    4   58 1    
    11    5   31 1    
    12    6   11 1    
    13    6   39 1    
    14    7   33 1    
    15    7   34 1    
    16    7   59 1    
    17    8   32 1    
    18    9   13 1    
    19    9   40 1    
    20   10   33 1    
    21   11   26 1    
    22   11   41 1    
    23   12   28 1    
    24   12   29 1    
    25   13   26 1    
    26   13   42 1    
    27   14   18 1    
    28   14   25 1    
    29   14   43 1    
    30   15   19 1    
    31   15   25 1    
    32   15   44 1    
    33   16   20 1    
    34   16   27 1    
    35   16   45 1    
    36   17   21 1    
    37   17   27 1    
    38   17   46 1    
    39   18   28 1    
    40   18   47 1    
    41   19   28 1    
    42   19   48 1    
    43   20   29 1    
    44   20   49 1    
    45   21   29 1    
    46   21   50 1    
    47   22   25 1    
    48   22   34 1    
    49   22   51 1    
    50   22   52 1    
    51   23   30 1    
    52   23   53 1    
    53   23   54 1    
    54   24   26 1    
    55   24   35 1    
    56   24   55 1    
    57   24   56 1    
    58   27   30 1    
    59   31   34 1    
    60   32   35 1    
    61   33   60 1    
    62   34   36 1    
    63   35   37 1    
    64   60   61 1    
    65   61   62 1    
    66   61   66 1    
    67   61   70 1    
    68   62   63 1    
    69   62   64 1    
    70   62   65 1    
    71   66   67 1    
    72   66   68 1    
    73   66   69 1    
    74   70   71 1    
    75   70   72 1    
    76   70   73 1    
@<TRIPOS>SUBSTRUCTURE
     1 ****        1 GROUP             0       ****    0 ROOT    
@<TRIPOS>MOLECULE
Cpd3-10
73   76    1
SMALL
USER_CHARGES


@<TRIPOS>ATOM
      1 N           0.7345   -1.2718    2.2608 N.3       1 ****        0.0000 
      2 O           2.7281    0.1445    4.6810 O.3       1 ****        0.0000 
      3 C          -5.4480   -2.8889   -1.0982 C.3       1 ****        0.0000 
      4 N          -0.7688   -1.0433   -0.9662 N.3       1 ****        0.0000 
      5 O          -2.7157    0.1327   -0.8815 O.3       1 ****        0.0000 
      6 C          -5.2303   -2.6190    0.2537 C.3       1 ****        0.0000 
      7 N          -2.3352   -0.8553   -3.8017 N.3       1 ****        0.0000 
      8 O           1.5254   -1.9481    0.2379 O.3       1 ****        0.0000 
      9 C          -4.3700   -3.2129   -1.9206 C.3       1 ****        0.0000 
     10 O          -0.6671   -2.4028   -3.9526 O.3       1 ****        0.0000 
     11 C          -3.9406   -2.6635    0.7763 C.3       1 ****        0.0000 
     12 O           1.8776    4.2357   -0.1593 O.3       1 ****        0.0000 
     13 C          -3.0807   -3.2583   -1.3919 C.3       1 ****        0.0000 
     14 C           0.2075    2.8102   -3.0998 C.3       1 ****        0.0000 
     15 C          -1.3447    2.8971   -1.2617 C.3       1 ****        0.0000 
     16 C           2.6330    0.9085    1.1642 C.3       1 ****        0.0000 
     17 C           2.3259    2.4507    3.0021 C.3       1 ****        0.0000 
     18 C           1.1666    3.4803   -2.3372 C.3       1 ****        0.0000 
     19 C          -0.3969    3.5594   -0.4900 C.3       1 ****        0.0000 
     20 C           2.5012    1.9513    0.2637 C.3       1 ****        0.0000 
     21 C           2.1697    3.5033    2.1024 C.3       1 ****        0.0000 
     22 C          -1.9555    1.5198   -3.2886 C.3       1 ****        0.0000 
     23 C           1.9952   -1.3557    2.9779 C.3       1 ****        0.0000 
     24 C          -1.4456   -2.9424    0.4972 C.3       1 ****        0.0000 
     25 C          -1.0334    2.4634   -2.5559 C.3       1 ****        0.0000 
     26 C          -2.8511   -2.9771   -0.0431 C.3       1 ****        0.0000 
     27 C           2.5071    1.1432    2.5387 C.3       1 ****        0.0000 
     28 C           0.8687    3.7930   -1.0179 C.3       1 ****        0.0000 
     29 C           2.2056    3.2326    0.7366 C.3       1 ****        0.0000 
     30 C           2.4629    0.0104    3.5009 C.3       1 ****        0.0000 
     31 C          -1.7394   -0.2686   -1.5060 C.3       1 ****        0.0000 
     32 C           0.5950   -1.5866    0.9506 C.3       1 ****        0.0000 
     33 C          -1.8213   -2.0612   -4.1676 C.3       1 ****        0.0000 
     34 C          -1.5535    0.0669   -2.9971 C.3       1 ****        0.0000 
     35 C          -0.8291   -1.5250    0.3999 C.3       1 ****        0.0000 
     36 H          -0.5069   -0.0827   -3.2778 H         1 ****        0.0000 
     37 H          -1.4447   -0.8180    0.9647 H         1 ****        0.0000 
     38 H          -6.4531   -2.8504   -1.5056 H         1 ****        0.0000 
     39 H          -6.0668   -2.3709    0.9006 H         1 ****        0.0000 
     40 H          -4.5248   -3.4207   -2.9756 H         1 ****        0.0000 
     41 H          -3.7732   -2.4433    1.8281 H         1 ****        0.0000 
     42 H          -2.2344   -3.5111   -2.0283 H         1 ****        0.0000 
     43 H           0.4524    2.5072   -4.1144 H         1 ****        0.0000 
     44 H          -2.3142    2.6544   -0.8376 H         1 ****        0.0000 
     45 H           2.8060   -0.0938    0.7836 H         1 ****        0.0000 
     46 H           2.2472    2.6255    4.0703 H         1 ****        0.0000 
     47 H           2.1545    3.6942   -2.7326 H         1 ****        0.0000 
     48 H          -0.6061    3.8363    0.5388 H         1 ****        0.0000 
     49 H           2.5573    1.7672   -0.8037 H         1 ****        0.0000 
     50 H           1.9586    4.5115    2.4409 H         1 ****        0.0000 
     51 H          -2.9924    1.6708   -2.9722 H         1 ****        0.0000 
     52 H          -1.8948    1.6722   -4.3708 H         1 ****        0.0000 
     53 H           2.7358   -1.7734    2.2909 H         1 ****        0.0000 
     54 H           1.9042   -2.0196    3.8414 H         1 ****        0.0000 
     55 H          -1.4299   -3.2544    1.5478 H         1 ****        0.0000 
     56 H          -0.8011   -3.6279   -0.0658 H         1 ****        0.0000 
     57 H          -0.0829   -0.9641    2.7714 H         1 ****        0.0000 
     58 H          -0.0350   -1.4147   -1.5602 H         1 ****        0.0000 
     59 H          -3.3406   -0.7392   -3.8484 H         1 ****        0.0000 
     60 O          -2.7520   -2.7929   -4.7982 O.3       1 ****        0.0000 
     61 C          -2.4092   -4.0652   -5.4382 C.3       1 ****        0.0000 
     62 C          -1.9888   -5.0912   -4.3905 C.3       1 ****        0.0000 
     63 H          -1.8288   -6.0553   -4.8833 H         1 ****        0.0000 
     64 H          -1.0638   -4.7943   -3.8930 H         1 ****        0.0000 
     65 H          -2.7783   -5.2185   -3.6432 H         1 ****        0.0000 
     66 C          -3.7247   -4.4760   -6.0896 C.3       1 ****        0.0000 
     67 H          -4.5095   -4.5797   -5.3344 H         1 ****        0.0000 
     68 H          -4.0386   -3.7275   -6.8227 H         1 ****        0.0000 
     69 H          -3.6004   -5.4356   -6.5976 H         1 ****        0.0000 
     70 C          -1.3325   -3.8437   -6.4971 C.3       1 ****        0.0000 
     71 H          -1.6357   -3.0430   -7.1779 H         1 ****        0.0000 
     72 H          -0.3740   -3.5871   -6.0434 H         1 ****        0.0000 
     73 H          -1.2123   -4.7624   -7.0790 H         1 ****        0.0000 
@<TRIPOS>BOND
     1    1   23 1    
     2    1   32 1    
     3    1   57 1    
     4    2   30 1    
     5    3    6 1    
     6    3    9 1    
     7    3   38 1    
     8    4   31 1    
     9    4   35 1    
    10    4   58 1    
    11    5   31 1    
    12    6   11 1    
    13    6   39 1    
    14    7   33 1    
    15    7   34 1    
    16    7   59 1    
    17    8   32 1    
    18    9   13 1    
    19    9   40 1    
    20   10   33 1    
    21   11   26 1    
    22   11   41 1    
    23   12   28 1    
    24   12   29 1    
    25   13   26 1    
    26   13   42 1    
    27   14   18 1    
    28   14   25 1    
    29   14   43 1    
    30   15   19 1    
    31   15   25 1    
    32   15   44 1    
    33   16   20 1    
    34   16   27 1    
    35   16   45 1    
    36   17   21 1    
    37   17   27 1    
    38   17   46 1    
    39   18   28 1    
    40   18   47 1    
    41   19   28 1    
    42   19   48 1    
    43   20   29 1    
    44   20   49 1    
    45   21   29 1    
    46   21   50 1    
    47   22   25 1    
    48   22   34 1    
    49   22   51 1    
    50   22   52 1    
    51   23   30 1    
    52   23   53 1    
    53   23   54 1    
    54   24   26 1    
    55   24   35 1    
    56   24   55 1    
    57   24   56 1    
    58   27   30 1    
    59   31   34 1    
    60   32   35 1    
    61   33   60 1    
    62   34   36 1    
    63   35   37 1    
    64   60   61 1    
    65   61   62 1    
    66   61   66 1    
    67   61   70 1    
    68   62   63 1    
    69   62   64 1    
    70   62   65 1    
    71   66   67 1    
    72   66   68 1    
    73   66   69 1    
    74   70   71 1    
    75   70   72 1    
    76   70   73 1    
@<TRIPOS>SUBSTRUCTURE
     1 ****        1 GROUP             0       ****    0 ROOT    
