@<TRIPOS>MOLECULE
Cpd3-500
73   76    1
SMALL
USER_CHARGES


@<TRIPOS>ATOM
      1 C           7.9502   -1.1197    0.2236 C.3       1 ****        0.0000 
      2 H           8.9792   -1.4833    0.1127 H         1 ****        0.0000 
      3 H           7.8528   -0.1876   -0.3470 H         1 ****        0.0000 
      4 H           7.7027   -0.8224    1.2495 H         1 ****        0.0000 
      5 C           6.9384   -2.0551   -0.3066 C.3       1 ****        0.0000 
      6 C           7.2330   -3.4719    0.0936 C.3       1 ****        0.0000 
      7 H           8.1003   -3.8583   -0.4573 H         1 ****        0.0000 
      8 H           7.3154   -3.4516    1.1864 H         1 ****        0.0000 
      9 H           6.3703   -4.1236   -0.0878 H         1 ****        0.0000 
     10 C           6.6433   -1.8876   -1.8700 C.3       1 ****        0.0000 
     11 H           6.0636   -0.9787   -2.0703 H         1 ****        0.0000 
     12 H           7.5746   -1.7347   -2.4294 H         1 ****        0.0000 
     13 H           6.2338   -2.8102   -2.2991 H         1 ****        0.0000 
     14 O           5.7905   -1.6767    0.3949 O.3       1 ****        0.0000 
     15 C           4.5647   -2.2095    0.1410 C.3       1 ****        0.0000 
     16 O           4.2709   -3.0254   -0.6831 O.3       1 ****        0.0000 
     17 N           3.5814   -1.4507    0.7493 N.3       1 ****        0.0000 
     18 H           3.8456   -0.6360    1.2881 H         1 ****        0.0000 
     19 C           2.1375   -1.7938    0.7428 C.3       1 ****        0.0000 
     20 C           1.4640   -0.4526    1.0077 C.3       1 ****        0.0000 
     21 N           0.9760    0.2733   -0.0630 N.3       1 ****        0.0000 
     22 H           0.9880   -0.2334   -0.9394 H         1 ****        0.0000 
     23 O           1.4776   -0.1125    2.1978 O.3       1 ****        0.0000 
     24 H           1.7815   -2.1375   -0.2363 H         1 ****        0.0000 
     25 C           1.8249   -2.8929    1.7993 C.3       1 ****        0.0000 
     26 H           2.0991   -2.3898    2.7351 H         1 ****        0.0000 
     27 H           2.6369   -3.6153    1.6499 H         1 ****        0.0000 
     28 C           0.3950   -3.3524    1.7059 C.3       1 ****        0.0000 
     29 C          -0.6573   -2.5960    2.3291 C.3       1 ****        0.0000 
     30 C          -1.9825   -2.8758    1.9436 C.3       1 ****        0.0000 
     31 H          -2.8103   -2.2338    2.2270 H         1 ****        0.0000 
     32 H          -0.4635   -1.7294    2.9558 H         1 ****        0.0000 
     33 C           0.1050   -4.3929    0.8265 C.3       1 ****        0.0000 
     34 H           0.8739   -4.9900    0.3433 H         1 ****        0.0000 
     35 C          -1.1917   -4.6433    0.4662 C.3       1 ****        0.0000 
     36 H          -1.3466   -5.3417   -0.3511 H         1 ****        0.0000 
     37 C          -2.2362   -3.9007    1.0511 C.3       1 ****        0.0000 
     38 O          -3.5089   -3.9477    0.4996 O.3       1 ****        0.0000 
     39 C          -3.8287   -2.9334   -0.3617 C.3       1 ****        0.0000 
     40 C          -2.9116   -2.4068   -1.2825 C.3       1 ****        0.0000 
     41 C          -3.1467   -1.1224   -1.8668 C.3       1 ****        0.0000 
     42 H          -2.3618   -0.7364   -2.5101 H         1 ****        0.0000 
     43 H          -2.0401   -3.0007   -1.5423 H         1 ****        0.0000 
     44 C          -5.0491   -2.2144   -0.1867 C.3       1 ****        0.0000 
     45 H          -5.7503   -2.6000    0.5468 H         1 ****        0.0000 
     46 C          -5.2779   -0.9885   -0.7964 C.3       1 ****        0.0000 
     47 H          -6.1140   -0.3355   -0.5628 H         1 ****        0.0000 
     48 C          -4.2821   -0.3657   -1.6224 C.3       1 ****        0.0000 
     49 C          -4.3736    1.0552   -2.0125 C.3       1 ****        0.0000 
     50 O          -5.4337    1.6473   -1.9615 O.3       1 ****        0.0000 
     51 C          -3.0796    1.8290   -2.4038 C.3       1 ****        0.0000 
     52 H          -2.5110    1.3257   -3.1957 H         1 ****        0.0000 
     53 H          -3.3483    2.8828   -2.5494 H         1 ****        0.0000 
     54 N          -2.1195    1.8441   -1.2963 N.3       1 ****        0.0000 
     55 H          -2.6467    2.0770   -0.4641 H         1 ****        0.0000 
     56 C          -0.8083    1.3054   -1.2281 C.3       1 ****        0.0000 
     57 O          -0.3563    0.9602   -2.2879 O.3       1 ****        0.0000 
     58 C          -0.0443    1.2382    0.1409 C.3       1 ****        0.0000 
     59 H          -0.7946    0.8542    0.8424 H         1 ****        0.0000 
     60 C           0.5205    2.6210    0.5757 C.3       1 ****        0.0000 
     61 H           1.1989    2.9933   -0.2020 H         1 ****        0.0000 
     62 H           1.1131    2.6234    1.4981 H         1 ****        0.0000 
     63 C          -0.5359    3.6446    0.8002 C.3       1 ****        0.0000 
     64 C          -1.7505    3.3125    1.4235 C.3       1 ****        0.0000 
     65 H          -1.9222    2.3118    1.8100 H         1 ****        0.0000 
     66 C          -2.7060    4.2838    1.5550 C.3       1 ****        0.0000 
     67 H          -3.7281    4.0305    1.8225 H         1 ****        0.0000 
     68 C          -2.4281    5.5955    1.1393 C.3       1 ****        0.0000 
     69 H          -3.0517    6.4849    1.1332 H         1 ****        0.0000 
     70 C          -1.2010    5.9115    0.6013 C.3       1 ****        0.0000 
     71 H          -1.0103    6.8992    0.1912 H         1 ****        0.0000 
     72 C          -0.2693    4.9211    0.3415 C.3       1 ****        0.0000 
     73 H           0.6688    5.1466   -0.1559 H         1 ****        0.0000 
@<TRIPOS>BOND
     1    1    2 1    
     2    1    3 1    
     3    1    4 1    
     4    1    5 1    
     5    5    6 1    
     6    5   10 1    
     7    5   14 1    
     8    6    7 1    
     9    6    8 1    
    10    6    9 1    
    11   10   11 1    
    12   10   12 1    
    13   10   13 1    
    14   14   15 1    
    15   15   16 1    
    16   15   17 1    
    17   17   18 1    
    18   17   19 1    
    19   19   20 1    
    20   19   24 1    
    21   19   25 1    
    22   20   21 1    
    23   20   23 1    
    24   21   22 1    
    25   21   58 1    
    26   25   26 1    
    27   25   27 1    
    28   25   28 1    
    29   28   29 1    
    30   28   33 1    
    31   29   30 1    
    32   29   32 1    
    33   30   31 1    
    34   30   37 1    
    35   33   34 1    
    36   33   35 1    
    37   35   36 1    
    38   35   37 1    
    39   37   38 1    
    40   38   39 1    
    41   39   40 1    
    42   39   44 1    
    43   40   41 1    
    44   40   43 1    
    45   41   42 1    
    46   41   48 1    
    47   44   45 1    
    48   44   46 1    
    49   46   47 1    
    50   46   48 1    
    51   48   49 1    
    52   49   50 1    
    53   49   51 1    
    54   51   52 1    
    55   51   53 1    
    56   51   54 1    
    57   54   55 1    
    58   54   56 1    
    59   56   57 1    
    60   56   58 1    
    61   58   59 1    
    62   58   60 1    
    63   60   61 1    
    64   60   62 1    
    65   60   63 1    
    66   63   64 1    
    67   63   72 1    
    68   64   65 1    
    69   64   66 1    
    70   66   67 1    
    71   66   68 1    
    72   68   69 1    
    73   68   70 1    
    74   70   71 1    
    75   70   72 1    
    76   72   73 1    
@<TRIPOS>SUBSTRUCTURE
     1 ****        1 GROUP             0       ****    0 ROOT    
@<TRIPOS>MOLECULE
Cpd3-1000
73   76    1
SMALL
USER_CHARGES


@<TRIPOS>ATOM
      1 C           8.1791   -1.4783    1.0299 C.3       1 ****        0.0000 
      2 H           9.1919   -1.8995    0.9980 H         1 ****        0.0000 
      3 H           8.0752   -0.4470    0.6679 H         1 ****        0.0000 
      4 H           8.0467   -1.4470    2.1187 H         1 ****        0.0000 
      5 C           7.1269   -2.2613    0.3055 C.3       1 ****        0.0000 
      6 C           7.1576   -3.7277    0.6541 C.3       1 ****        0.0000 
      7 H           6.9062   -3.9000    1.7082 H         1 ****        0.0000 
      8 H           6.4449   -4.1383   -0.0710 H         1 ****        0.0000 
      9 H           8.1532   -4.1522    0.4768 H         1 ****        0.0000 
     10 C           7.3699   -1.9896   -1.1587 C.3       1 ****        0.0000 
     11 H           8.4335   -1.9823   -1.4272 H         1 ****        0.0000 
     12 H           6.8674   -2.6917   -1.8367 H         1 ****        0.0000 
     13 H           7.0594   -0.9992   -1.5117 H         1 ****        0.0000 
     14 O           5.9154   -1.6813    0.7353 O.3       1 ****        0.0000 
     15 C           4.7278   -2.0850    0.2125 C.3       1 ****        0.0000 
     16 O           4.5593   -2.7933   -0.7530 O.3       1 ****        0.0000 
     17 N           3.7464   -1.5692    1.0366 N.3       1 ****        0.0000 
     18 H           4.0664   -1.0387    1.8371 H         1 ****        0.0000 
     19 C           2.2763   -1.7805    0.9135 C.3       1 ****        0.0000 
     20 C           1.4450   -0.5051    1.0549 C.3       1 ****        0.0000 
     21 N           0.9893    0.1195   -0.0979 N.3       1 ****        0.0000 
     22 H           1.2771   -0.2780   -0.9834 H         1 ****        0.0000 
     23 O           1.3039    0.0480    2.1500 O.3       1 ****        0.0000 
     24 H           2.0830   -2.1337   -0.1068 H         1 ****        0.0000 
     25 C           1.8096   -2.7776    1.9696 C.3       1 ****        0.0000 
     26 H           1.8483   -2.3126    2.9625 H         1 ****        0.0000 
     27 H           2.5618   -3.5759    1.9446 H         1 ****        0.0000 
     28 C           0.3865   -3.2501    1.6887 C.3       1 ****        0.0000 
     29 C          -0.7020   -2.5517    2.2235 C.3       1 ****        0.0000 
     30 C          -2.0379   -2.8832    1.9227 C.3       1 ****        0.0000 
     31 H          -2.8996   -2.3099    2.2521 H         1 ****        0.0000 
     32 H          -0.5552   -1.7360    2.9243 H         1 ****        0.0000 
     33 C           0.0977   -4.3495    0.8233 C.3       1 ****        0.0000 
     34 H           0.8490   -4.8388    0.2084 H         1 ****        0.0000 
     35 C          -1.2335   -4.6735    0.5366 C.3       1 ****        0.0000 
     36 H          -1.4432   -5.2980   -0.3255 H         1 ****        0.0000 
     37 C          -2.2734   -3.9184    1.0456 C.3       1 ****        0.0000 
     38 O          -3.4496   -3.9908    0.2916 O.3       1 ****        0.0000 
     39 C          -3.7691   -2.9124   -0.4249 C.3       1 ****        0.0000 
     40 C          -2.9583   -2.4395   -1.4786 C.3       1 ****        0.0000 
     41 C          -3.2326   -1.2114   -2.0702 C.3       1 ****        0.0000 
     42 H          -2.4878   -0.8668   -2.7838 H         1 ****        0.0000 
     43 H          -2.0561   -3.0112   -1.6787 H         1 ****        0.0000 
     44 C          -4.8920   -2.1269   -0.0776 C.3       1 ****        0.0000 
     45 H          -5.5617   -2.4609    0.7079 H         1 ****        0.0000 
     46 C          -5.2139   -0.9310   -0.7186 C.3       1 ****        0.0000 
     47 H          -6.0832   -0.3698   -0.3880 H         1 ****        0.0000 
     48 C          -4.2472   -0.3920   -1.5631 C.3       1 ****        0.0000 
     49 C          -4.3655    1.0768   -2.0259 C.3       1 ****        0.0000 
     50 O          -5.4299    1.6668   -1.9059 O.3       1 ****        0.0000 
     51 C          -3.1029    1.9691   -2.1452 C.3       1 ****        0.0000 
     52 H          -2.7000    1.8018   -3.1517 H         1 ****        0.0000 
     53 H          -3.4686    3.0015   -2.1851 H         1 ****        0.0000 
     54 N          -2.1009    1.6655   -0.9783 N.3       1 ****        0.0000 
     55 H          -2.3031    1.9701   -0.0341 H         1 ****        0.0000 
     56 C          -0.8368    1.2016   -1.2831 C.3       1 ****        0.0000 
     57 O          -0.5980    0.7853   -2.3651 O.3       1 ****        0.0000 
     58 C           0.2270    1.3222   -0.1446 C.3       1 ****        0.0000 
     59 H          -0.3500    1.5052    0.7704 H         1 ****        0.0000 
     60 C           1.1905    2.5421   -0.3608 C.3       1 ****        0.0000 
     61 H           1.6013    2.4610   -1.3745 H         1 ****        0.0000 
     62 H           2.0179    2.4661    0.3566 H         1 ****        0.0000 
     63 C           0.5289    3.8644   -0.0392 C.3       1 ****        0.0000 
     64 C           0.6491    4.4050    1.2429 C.3       1 ****        0.0000 
     65 H           1.2316    3.8904    2.0020 H         1 ****        0.0000 
     66 C           0.0891    5.6701    1.5600 C.3       1 ****        0.0000 
     67 H           0.0869    6.0531    2.5748 H         1 ****        0.0000 
     68 C          -0.5526    6.4073    0.5287 C.3       1 ****        0.0000 
     69 H          -1.0178    7.3360    0.8446 H         1 ****        0.0000 
     70 C          -0.5355    5.9256   -0.7989 C.3       1 ****        0.0000 
     71 H          -0.9558    6.5453   -1.5846 H         1 ****        0.0000 
     72 C           0.0046    4.6522   -1.0629 C.3       1 ****        0.0000 
     73 H           0.0645    4.2072   -2.0518 H         1 ****        0.0000 
@<TRIPOS>BOND
     1    1    2 1    
     2    1    3 1    
     3    1    4 1    
     4    1    5 1    
     5    5    6 1    
     6    5   10 1    
     7    5   14 1    
     8    6    7 1    
     9    6    8 1    
    10    6    9 1    
    11   10   11 1    
    12   10   12 1    
    13   10   13 1    
    14   14   15 1    
    15   15   16 1    
    16   15   17 1    
    17   17   18 1    
    18   17   19 1    
    19   19   20 1    
    20   19   24 1    
    21   19   25 1    
    22   20   21 1    
    23   20   23 1    
    24   21   22 1    
    25   21   58 1    
    26   25   26 1    
    27   25   27 1    
    28   25   28 1    
    29   28   29 1    
    30   28   33 1    
    31   29   30 1    
    32   29   32 1    
    33   30   31 1    
    34   30   37 1    
    35   33   34 1    
    36   33   35 1    
    37   35   36 1    
    38   35   37 1    
    39   37   38 1    
    40   38   39 1    
    41   39   40 1    
    42   39   44 1    
    43   40   41 1    
    44   40   43 1    
    45   41   42 1    
    46   41   48 1    
    47   44   45 1    
    48   44   46 1    
    49   46   47 1    
    50   46   48 1    
    51   48   49 1    
    52   49   50 1    
    53   49   51 1    
    54   51   52 1    
    55   51   53 1    
    56   51   54 1    
    57   54   55 1    
    58   54   56 1    
    59   56   57 1    
    60   56   58 1    
    61   58   59 1    
    62   58   60 1    
    63   60   61 1    
    64   60   62 1    
    65   60   63 1    
    66   63   64 1    
    67   63   72 1    
    68   64   65 1    
    69   64   66 1    
    70   66   67 1    
    71   66   68 1    
    72   68   69 1    
    73   68   70 1    
    74   70   71 1    
    75   70   72 1    
    76   72   73 1    
@<TRIPOS>SUBSTRUCTURE
     1 ****        1 GROUP             0       ****    0 ROOT    
@<TRIPOS>MOLECULE
Cpd3-1500
73   76    1
SMALL
USER_CHARGES


@<TRIPOS>ATOM
      1 C           7.8320   -0.9101   -0.9501 C.3       1 ****        0.0000 
      2 H           7.8319   -1.9631   -0.6433 H         1 ****        0.0000 
      3 H           8.6151   -0.8086   -1.7116 H         1 ****        0.0000 
      4 H           8.1079   -0.4726    0.0174 H         1 ****        0.0000 
      5 C           6.4177   -0.6714   -1.4685 C.3       1 ****        0.0000 
      6 C           6.1510   -1.6460   -2.6048 C.3       1 ****        0.0000 
      7 H           6.7782   -1.3577   -3.4568 H         1 ****        0.0000 
      8 H           6.3242   -2.6982   -2.3429 H         1 ****        0.0000 
      9 H           5.1231   -1.6896   -2.9813 H         1 ****        0.0000 
     10 C           6.3020    0.7660   -2.0493 C.3       1 ****        0.0000 
     11 H           5.3332    0.8287   -2.5622 H         1 ****        0.0000 
     12 H           6.3354    1.4161   -1.1669 H         1 ****        0.0000 
     13 H           7.1075    0.9899   -2.7590 H         1 ****        0.0000 
     14 O           5.5251   -0.9941   -0.3121 O.3       1 ****        0.0000 
     15 C           4.1344   -0.9983   -0.3597 C.3       1 ****        0.0000 
     16 O           3.4650   -0.4114   -1.2370 O.3       1 ****        0.0000 
     17 N           3.5129   -1.6497    0.6858 N.3       1 ****        0.0000 
     18 H           4.1424   -2.1165    1.3269 H         1 ****        0.0000 
     19 C           2.0319   -1.7547    0.8552 C.3       1 ****        0.0000 
     20 C           1.2729   -0.4116    0.9646 C.3       1 ****        0.0000 
     21 N           0.9786    0.2068   -0.2199 N.3       1 ****        0.0000 
     22 H           1.4078   -0.1992   -1.0430 H         1 ****        0.0000 
     23 O           1.0466   -0.0480    2.1022 O.3       1 ****        0.0000 
     24 H           1.6085   -2.2782   -0.0101 H         1 ****        0.0000 
     25 C           1.7274   -2.7533    2.0094 C.3       1 ****        0.0000 
     26 H           2.0263   -2.3825    2.9994 H         1 ****        0.0000 
     27 H           2.3832   -3.6298    1.9417 H         1 ****        0.0000 
     28 C           0.3817   -3.3879    1.8582 C.3       1 ****        0.0000 
     29 C          -0.7307   -3.0486    2.6462 C.3       1 ****        0.0000 
     30 C          -2.0857   -3.3388    2.2313 C.3       1 ****        0.0000 
     31 H          -2.9426   -2.9558    2.7784 H         1 ****        0.0000 
     32 H          -0.6896   -2.2043    3.3280 H         1 ****        0.0000 
     33 C           0.1744   -4.2067    0.7373 C.3       1 ****        0.0000 
     34 H           0.9776   -4.5624    0.0979 H         1 ****        0.0000 
     35 C          -1.1148   -4.4550    0.2995 C.3       1 ****        0.0000 
     36 H          -1.1876   -4.9749   -0.6510 H         1 ****        0.0000 
     37 C          -2.2383   -3.9544    1.0208 C.3       1 ****        0.0000 
     38 O          -3.5482   -4.0055    0.4481 O.3       1 ****        0.0000 
     39 C          -3.8820   -2.9740   -0.4315 C.3       1 ****        0.0000 
     40 C          -3.0610   -2.6294   -1.4684 C.3       1 ****        0.0000 
     41 C          -3.2268   -1.3491   -2.0282 C.3       1 ****        0.0000 
     42 H          -2.5533   -1.1390   -2.8536 H         1 ****        0.0000 
     43 H          -2.2846   -3.3083   -1.8100 H         1 ****        0.0000 
     44 C          -4.9637   -2.1532   -0.0493 C.3       1 ****        0.0000 
     45 H          -5.4235   -2.4019    0.9031 H         1 ****        0.0000 
     46 C          -5.0717   -0.8871   -0.5438 C.3       1 ****        0.0000 
     47 H          -5.7496   -0.1773   -0.0781 H         1 ****        0.0000 
     48 C          -4.1951   -0.4230   -1.5069 C.3       1 ****        0.0000 
     49 C          -4.2832    1.0290   -1.9045 C.3       1 ****        0.0000 
     50 O          -5.2863    1.6879   -1.6405 O.3       1 ****        0.0000 
     51 C          -3.0315    1.7761   -2.3850 C.3       1 ****        0.0000 
     52 H          -2.6505    1.2333   -3.2576 H         1 ****        0.0000 
     53 H          -3.4089    2.7518   -2.7164 H         1 ****        0.0000 
     54 N          -2.0276    1.9948   -1.3452 N.3       1 ****        0.0000 
     55 H          -2.4104    2.1201   -0.4170 H         1 ****        0.0000 
     56 C          -0.7183    1.5615   -1.4980 C.3       1 ****        0.0000 
     57 O          -0.2610    1.2411   -2.5773 O.3       1 ****        0.0000 
     58 C           0.2044    1.4442   -0.2333 C.3       1 ****        0.0000 
     59 H          -0.4267    1.4946    0.6625 H         1 ****        0.0000 
     60 C           1.3217    2.5818   -0.1416 C.3       1 ****        0.0000 
     61 H           2.0057    2.5474   -1.0001 H         1 ****        0.0000 
     62 H           1.9705    2.2882    0.6930 H         1 ****        0.0000 
     63 C           0.8374    3.9123    0.1014 C.3       1 ****        0.0000 
     64 C           0.3166    4.2268    1.3754 C.3       1 ****        0.0000 
     65 H           0.2570    3.4861    2.1675 H         1 ****        0.0000 
     66 C          -0.0794    5.5637    1.6632 C.3       1 ****        0.0000 
     67 H          -0.3805    5.7632    2.6869 H         1 ****        0.0000 
     68 C          -0.0774    6.4696    0.5828 C.3       1 ****        0.0000 
     69 H          -0.3774    7.4994    0.7522 H         1 ****        0.0000 
     70 C           0.2971    6.1401   -0.7216 C.3       1 ****        0.0000 
     71 H           0.2206    6.9406   -1.4514 H         1 ****        0.0000 
     72 C           0.8084    4.8308   -0.9689 C.3       1 ****        0.0000 
     73 H           1.2529    4.6516   -1.9437 H         1 ****        0.0000 
@<TRIPOS>BOND
     1    1    2 1    
     2    1    3 1    
     3    1    4 1    
     4    1    5 1    
     5    5    6 1    
     6    5   10 1    
     7    5   14 1    
     8    6    7 1    
     9    6    8 1    
    10    6    9 1    
    11   10   11 1    
    12   10   12 1    
    13   10   13 1    
    14   14   15 1    
    15   15   16 1    
    16   15   17 1    
    17   17   18 1    
    18   17   19 1    
    19   19   20 1    
    20   19   24 1    
    21   19   25 1    
    22   20   21 1    
    23   20   23 1    
    24   21   22 1    
    25   21   58 1    
    26   25   26 1    
    27   25   27 1    
    28   25   28 1    
    29   28   29 1    
    30   28   33 1    
    31   29   30 1    
    32   29   32 1    
    33   30   31 1    
    34   30   37 1    
    35   33   34 1    
    36   33   35 1    
    37   35   36 1    
    38   35   37 1    
    39   37   38 1    
    40   38   39 1    
    41   39   40 1    
    42   39   44 1    
    43   40   41 1    
    44   40   43 1    
    45   41   42 1    
    46   41   48 1    
    47   44   45 1    
    48   44   46 1    
    49   46   47 1    
    50   46   48 1    
    51   48   49 1    
    52   49   50 1    
    53   49   51 1    
    54   51   52 1    
    55   51   53 1    
    56   51   54 1    
    57   54   55 1    
    58   54   56 1    
    59   56   57 1    
    60   56   58 1    
    61   58   59 1    
    62   58   60 1    
    63   60   61 1    
    64   60   62 1    
    65   60   63 1    
    66   63   64 1    
    67   63   72 1    
    68   64   65 1    
    69   64   66 1    
    70   66   67 1    
    71   66   68 1    
    72   68   69 1    
    73   68   70 1    
    74   70   71 1    
    75   70   72 1    
    76   72   73 1    
@<TRIPOS>SUBSTRUCTURE
     1 ****        1 GROUP             0       ****    0 ROOT    
@<TRIPOS>MOLECULE
Cpd3-2000
73   76    1
SMALL
USER_CHARGES


@<TRIPOS>ATOM
      1 C           8.2390   -2.0987    0.4414 C.3       1 ****        0.0000 
      2 H           9.2256   -2.5685    0.3644 H         1 ****        0.0000 
      3 H           8.3078   -1.1795   -0.1534 H         1 ****        0.0000 
      4 H           8.1608   -1.8932    1.5165 H         1 ****        0.0000 
      5 C           7.0212   -3.0319    0.0936 C.3       1 ****        0.0000 
      6 C           7.0559   -4.2870    0.9951 C.3       1 ****        0.0000 
      7 H           7.9781   -4.7525    0.6272 H         1 ****        0.0000 
      8 H           7.2338   -3.9892    2.0353 H         1 ****        0.0000 
      9 H           6.1171   -4.8485    0.9190 H         1 ****        0.0000 
     10 C           6.9227   -3.3981   -1.4002 C.3       1 ****        0.0000 
     11 H           6.6551   -2.4904   -1.9530 H         1 ****        0.0000 
     12 H           7.9449   -3.6761   -1.6857 H         1 ****        0.0000 
     13 H           6.1530   -4.1393   -1.6474 H         1 ****        0.0000 
     14 O           5.8754   -2.2358    0.4304 O.3       1 ****        0.0000 
     15 C           4.5890   -2.6576    0.3928 C.3       1 ****        0.0000 
     16 O           4.1426   -3.6101   -0.2779 O.3       1 ****        0.0000 
     17 N           3.7976   -1.6687    0.9569 N.3       1 ****        0.0000 
     18 H           4.3652   -0.8882    1.2637 H         1 ****        0.0000 
     19 C           2.3014   -1.7852    0.9137 C.3       1 ****        0.0000 
     20 C           1.5649   -0.4170    1.1271 C.3       1 ****        0.0000 
     21 N           0.9962    0.1217   -0.0112 N.3       1 ****        0.0000 
     22 H           1.2381   -0.2227   -0.9326 H         1 ****        0.0000 
     23 O           1.4371    0.0838    2.2375 O.3       1 ****        0.0000 
     24 H           2.0013   -2.1276   -0.0849 H         1 ****        0.0000 
     25 C           1.8363   -2.8253    1.9710 C.3       1 ****        0.0000 
     26 H           2.0264   -2.3687    2.9501 H         1 ****        0.0000 
     27 H           2.5485   -3.6591    1.9779 H         1 ****        0.0000 
     28 C           0.4515   -3.2890    1.7092 C.3       1 ****        0.0000 
     29 C          -0.6194   -2.7694    2.4482 C.3       1 ****        0.0000 
     30 C          -1.9467   -3.1189    2.1220 C.3       1 ****        0.0000 
     31 H          -2.8072   -2.6936    2.6301 H         1 ****        0.0000 
     32 H          -0.3823   -2.1455    3.3054 H         1 ****        0.0000 
     33 C           0.1733   -4.1454    0.5863 C.3       1 ****        0.0000 
     34 H           1.0596   -4.6221    0.1793 H         1 ****        0.0000 
     35 C          -1.1605   -4.4524    0.2310 C.3       1 ****        0.0000 
     36 H          -1.3794   -4.9730   -0.6967 H         1 ****        0.0000 
     37 C          -2.2453   -3.8565    0.9528 C.3       1 ****        0.0000 
     38 O          -3.5240   -3.9233    0.4740 O.3       1 ****        0.0000 
     39 C          -3.9147   -2.9316   -0.4460 C.3       1 ****        0.0000 
     40 C          -2.9606   -2.3996   -1.3770 C.3       1 ****        0.0000 
     41 C          -3.2072   -1.1758   -1.9596 C.3       1 ****        0.0000 
     42 H          -2.4535   -0.7791   -2.6352 H         1 ****        0.0000 
     43 H          -2.0060   -2.8733   -1.5829 H         1 ****        0.0000 
     44 C          -5.0800   -2.1666   -0.1370 C.3       1 ****        0.0000 
     45 H          -5.7602   -2.6281    0.5740 H         1 ****        0.0000 
     46 C          -5.2424   -0.8471   -0.6631 C.3       1 ****        0.0000 
     47 H          -5.9875   -0.1203   -0.3527 H         1 ****        0.0000 
     48 C          -4.3205   -0.3276   -1.6074 C.3       1 ****        0.0000 
     49 C          -4.3765    1.1284   -2.0546 C.3       1 ****        0.0000 
     50 O          -5.4755    1.7359   -1.9719 O.3       1 ****        0.0000 
     51 C          -3.0448    1.7910   -2.3945 C.3       1 ****        0.0000 
     52 H          -2.6320    1.1401   -3.1750 H         1 ****        0.0000 
     53 H          -3.2556    2.7765   -2.8276 H         1 ****        0.0000 
     54 N          -2.0802    1.8340   -1.2800 N.3       1 ****        0.0000 
     55 H          -2.2793    2.5165   -0.5592 H         1 ****        0.0000 
     56 C          -0.8654    1.1852   -1.2946 C.3       1 ****        0.0000 
     57 O          -0.5525    0.5474   -2.3157 O.3       1 ****        0.0000 
     58 C          -0.0524    1.1643    0.0808 C.3       1 ****        0.0000 
     59 H          -0.7588    0.8822    0.8714 H         1 ****        0.0000 
     60 C           0.6251    2.4989    0.4907 C.3       1 ****        0.0000 
     61 H           1.5915    2.5637   -0.0238 H         1 ****        0.0000 
     62 H           1.0108    2.4089    1.5144 H         1 ****        0.0000 
     63 C          -0.2825    3.7461    0.3717 C.3       1 ****        0.0000 
     64 C          -1.2631    3.9671    1.4003 C.3       1 ****        0.0000 
     65 H          -1.2888    3.3053    2.2611 H         1 ****        0.0000 
     66 C          -2.1294    5.0539    1.3459 C.3       1 ****        0.0000 
     67 H          -2.8670    5.2603    2.1166 H         1 ****        0.0000 
     68 C          -2.1024    5.8849    0.2145 C.3       1 ****        0.0000 
     69 H          -2.7997    6.7182    0.1890 H         1 ****        0.0000 
     70 C          -1.2035    5.6020   -0.8176 C.3       1 ****        0.0000 
     71 H          -1.2584    6.1614   -1.7461 H         1 ****        0.0000 
     72 C          -0.3001    4.5539   -0.7825 C.3       1 ****        0.0000 
     73 H           0.4179    4.4401   -1.5904 H         1 ****        0.0000 
@<TRIPOS>BOND
     1    1    2 1    
     2    1    3 1    
     3    1    4 1    
     4    1    5 1    
     5    5    6 1    
     6    5   10 1    
     7    5   14 1    
     8    6    7 1    
     9    6    8 1    
    10    6    9 1    
    11   10   11 1    
    12   10   12 1    
    13   10   13 1    
    14   14   15 1    
    15   15   16 1    
    16   15   17 1    
    17   17   18 1    
    18   17   19 1    
    19   19   20 1    
    20   19   24 1    
    21   19   25 1    
    22   20   21 1    
    23   20   23 1    
    24   21   22 1    
    25   21   58 1    
    26   25   26 1    
    27   25   27 1    
    28   25   28 1    
    29   28   29 1    
    30   28   33 1    
    31   29   30 1    
    32   29   32 1    
    33   30   31 1    
    34   30   37 1    
    35   33   34 1    
    36   33   35 1    
    37   35   36 1    
    38   35   37 1    
    39   37   38 1    
    40   38   39 1    
    41   39   40 1    
    42   39   44 1    
    43   40   41 1    
    44   40   43 1    
    45   41   42 1    
    46   41   48 1    
    47   44   45 1    
    48   44   46 1    
    49   46   47 1    
    50   46   48 1    
    51   48   49 1    
    52   49   50 1    
    53   49   51 1    
    54   51   52 1    
    55   51   53 1    
    56   51   54 1    
    57   54   55 1    
    58   54   56 1    
    59   56   57 1    
    60   56   58 1    
    61   58   59 1    
    62   58   60 1    
    63   60   61 1    
    64   60   62 1    
    65   60   63 1    
    66   63   64 1    
    67   63   72 1    
    68   64   65 1    
    69   64   66 1    
    70   66   67 1    
    71   66   68 1    
    72   68   69 1    
    73   68   70 1    
    74   70   71 1    
    75   70   72 1    
    76   72   73 1    
@<TRIPOS>SUBSTRUCTURE
     1 ****        1 GROUP             0       ****    0 ROOT    
@<TRIPOS>MOLECULE
Cpd3-2500-MEC
73   76    1
SMALL
USER_CHARGES


@<TRIPOS>ATOM
      1 C           7.5290    0.1990   -0.6170 C.3       1 ****        0.0000 
      2 H           8.2120    0.9210   -1.0790 H         1 ****        0.0000 
      3 H           7.6160    0.4600    0.4450 H         1 ****        0.0000 
      4 H           7.8450   -0.8240   -0.8540 H         1 ****        0.0000 
      5 C           6.0990    0.3660   -1.1360 C.3       1 ****        0.0000 
      6 C           5.9480   -0.0530   -2.5570 C.3       1 ****        0.0000 
      7 H           6.8770    0.2430   -3.0600 H         1 ****        0.0000 
      8 H           5.9180   -1.1450   -2.6500 H         1 ****        0.0000 
      9 H           5.0560    0.4340   -2.9690 H         1 ****        0.0000 
     10 C           5.6450    1.8040   -0.8080 C.3       1 ****        0.0000 
     11 H           6.3500    2.5150   -1.2560 H         1 ****        0.0000 
     12 H           4.6340    1.9460   -1.2080 H         1 ****        0.0000 
     13 H           5.5610    1.8700    0.2840 H         1 ****        0.0000 
     14 O           5.3690   -0.4900   -0.2870 O.3       1 ****        0.0000 
     15 C           4.0210   -0.6800   -0.4110 C.3       1 ****        0.0000 
     16 O           3.3220   -0.4280   -1.3190 O.3       1 ****        0.0000 
     17 N           3.6030   -1.3760    0.6620 N.3       1 ****        0.0000 
     18 H           4.2760   -1.5670    1.3940 H         1 ****        0.0000 
     19 C           2.1820   -1.6860    0.8720 C.3       1 ****        0.0000 
     20 C           1.2960   -0.4560    1.1160 C.3       1 ****        0.0000 
     21 N           0.8120    0.1900    0.0140 N.3       1 ****        0.0000 
     22 H           1.2030   -0.1410   -0.8590 H         1 ****        0.0000 
     23 O           1.0210   -0.1510    2.3130 O.3       1 ****        0.0000 
     24 H           1.8470   -1.9250   -0.1440 H         1 ****        0.0000 
     25 C           1.9790   -2.8860    1.8350 C.3       1 ****        0.0000 
     26 H           2.1320   -2.6170    2.8870 H         1 ****        0.0000 
     27 H           2.7550   -3.6150    1.5690 H         1 ****        0.0000 
     28 C           0.4940   -3.4360    1.7630 C.3       1 ****        0.0000 
     29 C          -0.5940   -2.6750    2.2670 C.3       1 ****        0.0000 
     30 C          -1.9180   -2.8660    1.8620 C.3       1 ****        0.0000 
     31 H          -2.6580   -2.1070    2.0980 H         1 ****        0.0000 
     32 H          -0.3400   -1.8140    2.8800 H         1 ****        0.0000 
     33 C           0.1660   -4.5520    0.9530 C.3       1 ****        0.0000 
     34 H           0.9620   -5.0930    0.4490 H         1 ****        0.0000 
     35 C          -1.1440   -4.7330    0.5190 C.3       1 ****        0.0000 
     36 H          -1.4090   -5.6250   -0.0390 H         1 ****        0.0000 
     37 C          -2.1600   -3.9100    0.9520 C.3       1 ****        0.0000 
     38 O          -3.4210   -4.0190    0.3020 O.3       1 ****        0.0000 
     39 C          -3.7850   -2.8400   -0.3570 C.3       1 ****        0.0000 
     40 C          -3.0440   -2.4510   -1.5170 C.3       1 ****        0.0000 
     41 C          -3.1990   -1.1600   -2.0450 C.3       1 ****        0.0000 
     42 H          -2.7110   -0.9030   -2.9790 H         1 ****        0.0000 
     43 H          -2.3190   -3.1450   -1.9300 H         1 ****        0.0000 
     44 C          -4.8520   -2.0840    0.0550 C.3       1 ****        0.0000 
     45 H          -5.4240   -2.4770    0.8910 H         1 ****        0.0000 
     46 C          -5.0890   -0.7940   -0.5430 C.3       1 ****        0.0000 
     47 H          -5.8130   -0.0730   -0.1720 H         1 ****        0.0000 
     48 C          -4.2030   -0.2640   -1.4800 C.3       1 ****        0.0000 
     49 C          -4.3150    1.1520   -1.9550 C.3       1 ****        0.0000 
     50 O          -5.3720    1.7770   -1.8490 O.3       1 ****        0.0000 
     51 C          -3.0820    1.7990   -2.5370 C.3       1 ****        0.0000 
     52 H          -2.5340    1.2360   -3.3020 H         1 ****        0.0000 
     53 H          -3.2540    2.7750   -3.0040 H         1 ****        0.0000 
     54 N          -2.1230    1.9510   -1.4400 N.3       1 ****        0.0000 
     55 H          -2.3610    2.5110   -0.6300 H         1 ****        0.0000 
     56 C          -0.9230    1.2730   -1.3770 C.3       1 ****        0.0000 
     57 O          -0.4780    0.6920   -2.3540 O.3       1 ****        0.0000 
     58 C          -0.1560    1.2900   -0.0280 C.3       1 ****        0.0000 
     59 H          -0.9530    1.1560    0.7140 H         1 ****        0.0000 
     60 C           0.4940    2.7120    0.0970 C.3       1 ****        0.0000 
     61 H           0.4710    3.2290   -0.8710 H         1 ****        0.0000 
     62 H           1.4980    2.7050    0.5370 H         1 ****        0.0000 
     63 C          -0.2940    3.6710    1.0230 C.3       1 ****        0.0000 
     64 C          -0.3610    3.5740    2.4340 C.3       1 ****        0.0000 
     65 H           0.2030    2.7860    2.9250 H         1 ****        0.0000 
     66 C          -1.2320    4.4230    3.1840 C.3       1 ****        0.0000 
     67 H          -1.3990    4.2310    4.2400 H         1 ****        0.0000 
     68 C          -1.9120    5.4130    2.5400 C.3       1 ****        0.0000 
     69 H          -2.4980    6.1130    3.1300 H         1 ****        0.0000 
     70 C          -1.8640    5.5450    1.1150 C.3       1 ****        0.0000 
     71 H          -2.4830    6.2880    0.6220 H         1 ****        0.0000 
     72 C          -1.0370    4.7050    0.3740 C.3       1 ****        0.0000 
     73 H          -0.9490    4.8500   -0.6980 H         1 ****        0.0000 
@<TRIPOS>BOND
     1    1    2 1    
     2    1    3 1    
     3    1    4 1    
     4    1    5 1    
     5    5    6 1    
     6    5   10 1    
     7    5   14 1    
     8    6    7 1    
     9    6    8 1    
    10    6    9 1    
    11   10   11 1    
    12   10   12 1    
    13   10   13 1    
    14   14   15 1    
    15   15   16 1    
    16   15   17 1    
    17   17   18 1    
    18   17   19 1    
    19   19   20 1    
    20   19   24 1    
    21   19   25 1    
    22   20   21 1    
    23   20   23 1    
    24   21   22 1    
    25   21   58 1    
    26   25   26 1    
    27   25   27 1    
    28   25   28 1    
    29   28   29 1    
    30   28   33 1    
    31   29   30 1    
    32   29   32 1    
    33   30   31 1    
    34   30   37 1    
    35   33   34 1    
    36   33   35 1    
    37   35   36 1    
    38   35   37 1    
    39   37   38 1    
    40   38   39 1    
    41   39   40 1    
    42   39   44 1    
    43   40   41 1    
    44   40   43 1    
    45   41   42 1    
    46   41   48 1    
    47   44   45 1    
    48   44   46 1    
    49   46   47 1    
    50   46   48 1    
    51   48   49 1    
    52   49   50 1    
    53   49   51 1    
    54   51   52 1    
    55   51   53 1    
    56   51   54 1    
    57   54   55 1    
    58   54   56 1    
    59   56   57 1    
    60   56   58 1    
    61   58   59 1    
    62   58   60 1    
    63   60   61 1    
    64   60   62 1    
    65   60   63 1    
    66   63   64 1    
    67   63   72 1    
    68   64   65 1    
    69   64   66 1    
    70   66   67 1    
    71   66   68 1    
    72   68   69 1    
    73   68   70 1    
    74   70   71 1    
    75   70   72 1    
    76   72   73 1    
@<TRIPOS>SUBSTRUCTURE
     1 ****        1 GROUP             0       ****    0 ROOT    
@<TRIPOS>MOLECULE
Cpd3-3000
73   76    1
SMALL
USER_CHARGES


@<TRIPOS>ATOM
      1 C           6.4846   -4.7532    2.7837 C.3       1 ****        0.0000 
      2 H           7.4053   -5.3172    2.9787 H         1 ****        0.0000 
      3 H           5.9739   -4.6131    3.7451 H         1 ****        0.0000 
      4 H           5.7351   -5.3562    2.2563 H         1 ****        0.0000 
      5 C           6.8453   -3.4471    2.1272 C.3       1 ****        0.0000 
      6 C           7.5162   -3.5740    0.7540 C.3       1 ****        0.0000 
      7 H           8.3553   -4.2810    0.7439 H         1 ****        0.0000 
      8 H           6.7909   -3.9782    0.0387 H         1 ****        0.0000 
      9 H           7.9079   -2.6263    0.3637 H         1 ****        0.0000 
     10 C           7.7861   -2.7045    3.0051 C.3       1 ****        0.0000 
     11 H           7.9860   -1.6909    2.6335 H         1 ****        0.0000 
     12 H           7.4661   -2.6048    4.0482 H         1 ****        0.0000 
     13 H           8.6624   -3.3640    3.0333 H         1 ****        0.0000 
     14 O           5.6999   -2.6412    2.1361 O.3       1 ****        0.0000 
     15 C           4.7032   -2.7597    1.2243 C.3       1 ****        0.0000 
     16 O           4.3446   -3.7554    0.6970 O.3       1 ****        0.0000 
     17 N           3.8864   -1.6824    1.4072 N.3       1 ****        0.0000 
     18 H           4.2039   -0.9321    2.0098 H         1 ****        0.0000 
     19 C           2.4186   -1.8039    1.1140 C.3       1 ****        0.0000 
     20 C           1.7279   -0.4386    1.1333 C.3       1 ****        0.0000 
     21 N           1.1799    0.0186   -0.0510 N.3       1 ****        0.0000 
     22 H           1.1219   -0.6040   -0.8475 H         1 ****        0.0000 
     23 O           1.7176    0.3096    2.1012 O.3       1 ****        0.0000 
     24 H           2.3171   -2.3002    0.1410 H         1 ****        0.0000 
     25 C           1.7737   -2.7603    2.1556 C.3       1 ****        0.0000 
     26 H           1.8627   -2.3459    3.1666 H         1 ****        0.0000 
     27 H           2.3111   -3.7093    2.2734 H         1 ****        0.0000 
     28 C           0.3516   -3.0253    1.8190 C.3       1 ****        0.0000 
     29 C          -0.7796   -2.1977    1.9691 C.3       1 ****        0.0000 
     30 C          -1.9873   -2.5191    1.4036 C.3       1 ****        0.0000 
     31 H          -2.8287   -1.8606    1.5958 H         1 ****        0.0000 
     32 H          -0.7179   -1.2912    2.5614 H         1 ****        0.0000 
     33 C           0.1258   -4.3047    1.1253 C.3       1 ****        0.0000 
     34 H           0.9852   -4.9598    1.0205 H         1 ****        0.0000 
     35 C          -1.1199   -4.6224    0.5801 C.3       1 ****        0.0000 
     36 H          -1.2487   -5.5524    0.0342 H         1 ****        0.0000 
     37 C          -2.1767   -3.7328    0.7322 C.3       1 ****        0.0000 
     38 O          -3.3929   -3.9779    0.1384 O.3       1 ****        0.0000 
     39 C          -3.8977   -2.9392   -0.6529 C.3       1 ****        0.0000 
     40 C          -3.2265   -2.4023   -1.7674 C.3       1 ****        0.0000 
     41 C          -3.5587   -1.1697   -2.3560 C.3       1 ****        0.0000 
     42 H          -2.9772   -0.7711   -3.1814 H         1 ****        0.0000 
     43 H          -2.4627   -3.0333   -2.2135 H         1 ****        0.0000 
     44 C          -5.0874   -2.3095   -0.1926 C.3       1 ****        0.0000 
     45 H          -5.7371   -2.6585    0.6042 H         1 ****        0.0000 
     46 C          -5.3328   -1.0342   -0.6701 C.3       1 ****        0.0000 
     47 H          -6.1450   -0.5234   -0.1606 H         1 ****        0.0000 
     48 C          -4.4589   -0.3148   -1.5813 C.3       1 ****        0.0000 
     49 C          -4.4015    1.1450   -1.7672 C.3       1 ****        0.0000 
     50 O          -5.4027    1.8107   -1.6307 O.3       1 ****        0.0000 
     51 C          -2.9930    1.7364   -1.9391 C.3       1 ****        0.0000 
     52 H          -2.6188    1.4846   -2.9397 H         1 ****        0.0000 
     53 H          -3.1774    2.8100   -2.0624 H         1 ****        0.0000 
     54 N          -2.0847    1.3574   -0.8878 N.3       1 ****        0.0000 
     55 H          -2.1197    1.8600   -0.0075 H         1 ****        0.0000 
     56 C          -0.8408    0.8993   -1.1647 C.3       1 ****        0.0000 
     57 O          -0.6547    0.3604   -2.1977 O.3       1 ****        0.0000 
     58 C           0.1929    1.0759   -0.0722 C.3       1 ****        0.0000 
     59 H          -0.3502    0.9979    0.8772 H         1 ****        0.0000 
     60 C           0.7581    2.5314   -0.0726 C.3       1 ****        0.0000 
     61 H           1.1092    2.6681   -1.1022 H         1 ****        0.0000 
     62 H           1.6156    2.5426    0.6117 H         1 ****        0.0000 
     63 C          -0.2635    3.5629    0.3806 C.3       1 ****        0.0000 
     64 C          -0.8288    3.6697    1.7087 C.3       1 ****        0.0000 
     65 H          -0.3400    3.0539    2.4571 H         1 ****        0.0000 
     66 C          -1.7712    4.6025    2.1642 C.3       1 ****        0.0000 
     67 H          -2.1429    4.6376    3.1837 H         1 ****        0.0000 
     68 C          -2.1571    5.5044    1.1569 C.3       1 ****        0.0000 
     69 H          -2.9185    6.2081    1.4842 H         1 ****        0.0000 
     70 C          -1.6585    5.5048   -0.1053 C.3       1 ****        0.0000 
     71 H          -1.9488    6.2432   -0.8467 H         1 ****        0.0000 
     72 C          -0.7464    4.5290   -0.5472 C.3       1 ****        0.0000 
     73 H          -0.3635    4.4947   -1.5635 H         1 ****        0.0000 
@<TRIPOS>BOND
     1    1    2 1    
     2    1    3 1    
     3    1    4 1    
     4    1    5 1    
     5    5    6 1    
     6    5   10 1    
     7    5   14 1    
     8    6    7 1    
     9    6    8 1    
    10    6    9 1    
    11   10   11 1    
    12   10   12 1    
    13   10   13 1    
    14   14   15 1    
    15   15   16 1    
    16   15   17 1    
    17   17   18 1    
    18   17   19 1    
    19   19   20 1    
    20   19   24 1    
    21   19   25 1    
    22   20   21 1    
    23   20   23 1    
    24   21   22 1    
    25   21   58 1    
    26   25   26 1    
    27   25   27 1    
    28   25   28 1    
    29   28   29 1    
    30   28   33 1    
    31   29   30 1    
    32   29   32 1    
    33   30   31 1    
    34   30   37 1    
    35   33   34 1    
    36   33   35 1    
    37   35   36 1    
    38   35   37 1    
    39   37   38 1    
    40   38   39 1    
    41   39   40 1    
    42   39   44 1    
    43   40   41 1    
    44   40   43 1    
    45   41   42 1    
    46   41   48 1    
    47   44   45 1    
    48   44   46 1    
    49   46   47 1    
    50   46   48 1    
    51   48   49 1    
    52   49   50 1    
    53   49   51 1    
    54   51   52 1    
    55   51   53 1    
    56   51   54 1    
    57   54   55 1    
    58   54   56 1    
    59   56   57 1    
    60   56   58 1    
    61   58   59 1    
    62   58   60 1    
    63   60   61 1    
    64   60   62 1    
    65   60   63 1    
    66   63   64 1    
    67   63   72 1    
    68   64   65 1    
    69   64   66 1    
    70   66   67 1    
    71   66   68 1    
    72   68   69 1    
    73   68   70 1    
    74   70   71 1    
    75   70   72 1    
    76   72   73 1    
@<TRIPOS>SUBSTRUCTURE
     1 ****        1 GROUP             0       ****    0 ROOT    
@<TRIPOS>MOLECULE
Cpd3-3500
73   76    1
SMALL
USER_CHARGES


@<TRIPOS>ATOM
      1 C           7.2965   -4.1282    0.9927 C.3       1 ****        0.0000 
      2 H           6.4234   -4.7229    0.6946 H         1 ****        0.0000 
      3 H           8.1432   -4.5523    0.4376 H         1 ****        0.0000 
      4 H           7.4684   -4.2846    2.0654 H         1 ****        0.0000 
      5 C           7.1159   -2.5837    0.5802 C.3       1 ****        0.0000 
      6 C           7.2438   -2.4227   -0.9608 C.3       1 ****        0.0000 
      7 H           6.6260   -3.1418   -1.5134 H         1 ****        0.0000 
      8 H           7.0556   -1.3882   -1.2716 H         1 ****        0.0000 
      9 H           8.2852   -2.6304   -1.2349 H         1 ****        0.0000 
     10 C           8.1657   -1.7384    1.2057 C.3       1 ****        0.0000 
     11 H           7.9275   -0.6852    1.0178 H         1 ****        0.0000 
     12 H           8.2623   -1.8540    2.2925 H         1 ****        0.0000 
     13 H           9.1282   -1.9562    0.7248 H         1 ****        0.0000 
     14 O           5.9309   -2.0066    1.2150 O.3       1 ****        0.0000 
     15 C           4.6693   -2.3999    0.8648 C.3       1 ****        0.0000 
     16 O           4.2865   -3.3321    0.2275 O.3       1 ****        0.0000 
     17 N           3.7094   -1.5486    1.3306 N.3       1 ****        0.0000 
     18 H           4.1332   -0.7574    1.8001 H         1 ****        0.0000 
     19 C           2.2224   -1.7443    1.1063 C.3       1 ****        0.0000 
     20 C           1.4099   -0.4176    1.1504 C.3       1 ****        0.0000 
     21 N           0.9847    0.1013   -0.0725 N.3       1 ****        0.0000 
     22 H           1.2745   -0.3139   -0.9502 H         1 ****        0.0000 
     23 O           1.0850    0.1503    2.2245 O.3       1 ****        0.0000 
     24 H           2.0399   -2.0545    0.0697 H         1 ****        0.0000 
     25 C           1.6247   -2.6989    2.1894 C.3       1 ****        0.0000 
     26 H           1.4515   -2.2064    3.1540 H         1 ****        0.0000 
     27 H           2.2887   -3.5677    2.2827 H         1 ****        0.0000 
     28 C           0.3586   -3.2511    1.7185 C.3       1 ****        0.0000 
     29 C          -0.7873   -2.5168    2.1082 C.3       1 ****        0.0000 
     30 C          -2.0246   -2.8753    1.6628 C.3       1 ****        0.0000 
     31 H          -2.8372   -2.2018    1.9115 H         1 ****        0.0000 
     32 H          -0.6995   -1.6456    2.7514 H         1 ****        0.0000 
     33 C           0.2719   -4.3772    0.9362 C.3       1 ****        0.0000 
     34 H           1.1688   -4.8108    0.5040 H         1 ****        0.0000 
     35 C          -1.0357   -4.6888    0.3734 C.3       1 ****        0.0000 
     36 H          -1.0978   -5.3673   -0.4729 H         1 ****        0.0000 
     37 C          -2.1560   -3.9435    0.7316 C.3       1 ****        0.0000 
     38 O          -3.4081   -4.0598    0.2184 O.3       1 ****        0.0000 
     39 C          -3.8740   -2.9710   -0.4556 C.3       1 ****        0.0000 
     40 C          -3.1889   -2.5515   -1.6502 C.3       1 ****        0.0000 
     41 C          -3.2833   -1.2105   -2.0477 C.3       1 ****        0.0000 
     42 H          -2.7011   -0.9474   -2.9247 H         1 ****        0.0000 
     43 H          -2.4062   -3.1378   -2.1237 H         1 ****        0.0000 
     44 C          -4.9461   -2.1944    0.0394 C.3       1 ****        0.0000 
     45 H          -5.4133   -2.5361    0.9597 H         1 ****        0.0000 
     46 C          -5.0684   -0.8710   -0.3448 C.3       1 ****        0.0000 
     47 H          -5.6604   -0.1942    0.2632 H         1 ****        0.0000 
     48 C          -4.2649   -0.3596   -1.4300 C.3       1 ****        0.0000 
     49 C          -4.3247    1.1391   -1.7874 C.3       1 ****        0.0000 
     50 O          -5.2201    1.8584   -1.3265 O.3       1 ****        0.0000 
     51 C          -3.0800    1.7428   -2.5018 C.3       1 ****        0.0000 
     52 H          -2.8584    1.1618   -3.4049 H         1 ****        0.0000 
     53 H          -3.3851    2.7426   -2.8368 H         1 ****        0.0000 
     54 N          -1.9432    1.9166   -1.5103 N.3       1 ****        0.0000 
     55 H          -2.2244    2.5803   -0.7987 H         1 ****        0.0000 
     56 C          -0.7963    1.2114   -1.4366 C.3       1 ****        0.0000 
     57 O          -0.4703    0.5023   -2.3976 O.3       1 ****        0.0000 
     58 C           0.0065    1.2700   -0.1572 C.3       1 ****        0.0000 
     59 H          -0.6916    1.2380    0.6883 H         1 ****        0.0000 
     60 C           0.8349    2.5783   -0.0840 C.3       1 ****        0.0000 
     61 H           1.6139    2.6082   -0.8552 H         1 ****        0.0000 
     62 H           1.3218    2.4023    0.8834 H         1 ****        0.0000 
     63 C           0.0550    3.8464    0.1295 C.3       1 ****        0.0000 
     64 C          -0.2130    4.2741    1.4598 C.3       1 ****        0.0000 
     65 H          -0.0252    3.6014    2.2913 H         1 ****        0.0000 
     66 C          -0.7541    5.5792    1.6163 C.3       1 ****        0.0000 
     67 H          -1.0025    5.8637    2.6347 H         1 ****        0.0000 
     68 C          -0.9249    6.4675    0.5554 C.3       1 ****        0.0000 
     69 H          -1.3694    7.4519    0.6640 H         1 ****        0.0000 
     70 C          -0.7858    6.0365   -0.7261 C.3       1 ****        0.0000 
     71 H          -0.9889    6.7066   -1.5546 H         1 ****        0.0000 
     72 C          -0.2713    4.7319   -0.9373 C.3       1 ****        0.0000 
     73 H          -0.1842    4.4085   -1.9699 H         1 ****        0.0000 
@<TRIPOS>BOND
     1    1    2 1    
     2    1    3 1    
     3    1    4 1    
     4    1    5 1    
     5    5    6 1    
     6    5   10 1    
     7    5   14 1    
     8    6    7 1    
     9    6    8 1    
    10    6    9 1    
    11   10   11 1    
    12   10   12 1    
    13   10   13 1    
    14   14   15 1    
    15   15   16 1    
    16   15   17 1    
    17   17   18 1    
    18   17   19 1    
    19   19   20 1    
    20   19   24 1    
    21   19   25 1    
    22   20   21 1    
    23   20   23 1    
    24   21   22 1    
    25   21   58 1    
    26   25   26 1    
    27   25   27 1    
    28   25   28 1    
    29   28   29 1    
    30   28   33 1    
    31   29   30 1    
    32   29   32 1    
    33   30   31 1    
    34   30   37 1    
    35   33   34 1    
    36   33   35 1    
    37   35   36 1    
    38   35   37 1    
    39   37   38 1    
    40   38   39 1    
    41   39   40 1    
    42   39   44 1    
    43   40   41 1    
    44   40   43 1    
    45   41   42 1    
    46   41   48 1    
    47   44   45 1    
    48   44   46 1    
    49   46   47 1    
    50   46   48 1    
    51   48   49 1    
    52   49   50 1    
    53   49   51 1    
    54   51   52 1    
    55   51   53 1    
    56   51   54 1    
    57   54   55 1    
    58   54   56 1    
    59   56   57 1    
    60   56   58 1    
    61   58   59 1    
    62   58   60 1    
    63   60   61 1    
    64   60   62 1    
    65   60   63 1    
    66   63   64 1    
    67   63   72 1    
    68   64   65 1    
    69   64   66 1    
    70   66   67 1    
    71   66   68 1    
    72   68   69 1    
    73   68   70 1    
    74   70   71 1    
    75   70   72 1    
    76   72   73 1    
@<TRIPOS>SUBSTRUCTURE
     1 ****        1 GROUP             0       ****    0 ROOT    
@<TRIPOS>MOLECULE
Cpd3-4000
73   76    1
SMALL
USER_CHARGES


@<TRIPOS>ATOM
      1 C           6.2035   -1.1841   -2.6036 C.3       1 ****        0.0000 
      2 H           7.0961   -1.2140   -3.2412 H         1 ****        0.0000 
      3 H           5.7699   -2.1917   -2.6450 H         1 ****        0.0000 
      4 H           5.5310   -0.4612   -3.0800 H         1 ****        0.0000 
      5 C           6.5358   -0.6991   -1.1902 C.3       1 ****        0.0000 
      6 C           6.5017    0.8174   -0.9527 C.3       1 ****        0.0000 
      7 H           6.2988    1.1978    0.0559 H         1 ****        0.0000 
      8 H           7.3705    1.3611   -1.3433 H         1 ****        0.0000 
      9 H           5.7845    1.2873   -1.6363 H         1 ****        0.0000 
     10 C           7.8163   -1.3103   -0.6301 C.3       1 ****        0.0000 
     11 H           7.8306   -1.2421    0.4648 H         1 ****        0.0000 
     12 H           7.8665   -2.3456   -0.9914 H         1 ****        0.0000 
     13 H           8.7042   -0.7817   -0.9983 H         1 ****        0.0000 
     14 O           5.5553   -1.2846   -0.3509 O.3       1 ****        0.0000 
     15 C           4.2307   -0.9399   -0.4317 C.3       1 ****        0.0000 
     16 O           3.6174   -0.4558   -1.3983 O.3       1 ****        0.0000 
     17 N           3.6795   -1.4599    0.7010 N.3       1 ****        0.0000 
     18 H           4.3312   -1.9001    1.3403 H         1 ****        0.0000 
     19 C           2.1964   -1.6088    0.8743 C.3       1 ****        0.0000 
     20 C           1.4157   -0.2780    1.0623 C.3       1 ****        0.0000 
     21 N           1.1798    0.4745   -0.1104 N.3       1 ****        0.0000 
     22 H           1.5885    0.1917   -0.9933 H         1 ****        0.0000 
     23 O           0.9697    0.1317    2.1030 O.3       1 ****        0.0000 
     24 H           1.8234   -1.8800   -0.1221 H         1 ****        0.0000 
     25 C           1.8140   -2.8787    1.8340 C.3       1 ****        0.0000 
     26 H           1.8988   -2.6007    2.8924 H         1 ****        0.0000 
     27 H           2.6243   -3.5984    1.6659 H         1 ****        0.0000 
     28 C           0.3681   -3.4330    1.6598 C.3       1 ****        0.0000 
     29 C          -0.6856   -2.6899    2.1376 C.3       1 ****        0.0000 
     30 C          -2.0245   -3.0999    1.8754 C.3       1 ****        0.0000 
     31 H          -2.8445   -2.5421    2.3178 H         1 ****        0.0000 
     32 H          -0.5341   -1.9068    2.8739 H         1 ****        0.0000 
     33 C           0.1051   -4.4129    0.7097 C.3       1 ****        0.0000 
     34 H           0.9779   -4.8773    0.2608 H         1 ****        0.0000 
     35 C          -1.2536   -4.7458    0.3450 C.3       1 ****        0.0000 
     36 H          -1.3905   -5.5467   -0.3737 H         1 ****        0.0000 
     37 C          -2.3503   -4.0896    0.9890 C.3       1 ****        0.0000 
     38 O          -3.5821   -3.9932    0.4770 O.3       1 ****        0.0000 
     39 C          -3.9026   -2.9041   -0.2999 C.3       1 ****        0.0000 
     40 C          -2.9960   -2.4055   -1.2298 C.3       1 ****        0.0000 
     41 C          -3.1216   -1.1960   -1.8268 C.3       1 ****        0.0000 
     42 H          -2.3790   -0.9237   -2.5695 H         1 ****        0.0000 
     43 H          -2.0574   -2.9170   -1.4183 H         1 ****        0.0000 
     44 C          -5.0377   -2.1568   -0.0191 C.3       1 ****        0.0000 
     45 H          -5.7557   -2.5432    0.6965 H         1 ****        0.0000 
     46 C          -5.2048   -0.8459   -0.5713 C.3       1 ****        0.0000 
     47 H          -6.0939   -0.2401   -0.4233 H         1 ****        0.0000 
     48 C          -4.2028   -0.3986   -1.4463 C.3       1 ****        0.0000 
     49 C          -4.3215    1.0132   -1.9522 C.3       1 ****        0.0000 
     50 O          -5.3714    1.5936   -2.0614 O.3       1 ****        0.0000 
     51 C          -3.0743    1.7609   -2.3215 C.3       1 ****        0.0000 
     52 H          -2.6594    1.3966   -3.2696 H         1 ****        0.0000 
     53 H          -3.3039    2.8259   -2.4480 H         1 ****        0.0000 
     54 N          -2.0315    1.6907   -1.1945 N.3       1 ****        0.0000 
     55 H          -2.3868    1.8950   -0.2677 H         1 ****        0.0000 
     56 C          -0.7043    1.3075   -1.3192 C.3       1 ****        0.0000 
     57 O          -0.2137    0.8337   -2.3205 O.3       1 ****        0.0000 
     58 C           0.1213    1.4920   -0.0534 C.3       1 ****        0.0000 
     59 H          -0.6351    1.2820    0.7125 H         1 ****        0.0000 
     60 C           0.7840    2.8526    0.1620 C.3       1 ****        0.0000 
     61 H           1.3437    3.1924   -0.7188 H         1 ****        0.0000 
     62 H           1.5199    2.7726    0.9716 H         1 ****        0.0000 
     63 C          -0.2542    3.8552    0.6650 C.3       1 ****        0.0000 
     64 C          -0.6377    3.9244    1.9924 C.3       1 ****        0.0000 
     65 H          -0.3942    3.1418    2.7038 H         1 ****        0.0000 
     66 C          -1.6069    4.9308    2.3357 C.3       1 ****        0.0000 
     67 H          -2.0704    4.9172    3.3171 H         1 ****        0.0000 
     68 C          -2.1131    5.8446    1.3664 C.3       1 ****        0.0000 
     69 H          -2.7427    6.6756    1.6700 H         1 ****        0.0000 
     70 C          -1.6969    5.7125   -0.0136 C.3       1 ****        0.0000 
     71 H          -1.9947    6.4561   -0.7482 H         1 ****        0.0000 
     72 C          -0.8026    4.6797   -0.3203 C.3       1 ****        0.0000 
     73 H          -0.5951    4.4721   -1.3664 H         1 ****        0.0000 
@<TRIPOS>BOND
     1    1    2 1    
     2    1    3 1    
     3    1    4 1    
     4    1    5 1    
     5    5    6 1    
     6    5   10 1    
     7    5   14 1    
     8    6    7 1    
     9    6    8 1    
    10    6    9 1    
    11   10   11 1    
    12   10   12 1    
    13   10   13 1    
    14   14   15 1    
    15   15   16 1    
    16   15   17 1    
    17   17   18 1    
    18   17   19 1    
    19   19   20 1    
    20   19   24 1    
    21   19   25 1    
    22   20   21 1    
    23   20   23 1    
    24   21   22 1    
    25   21   58 1    
    26   25   26 1    
    27   25   27 1    
    28   25   28 1    
    29   28   29 1    
    30   28   33 1    
    31   29   30 1    
    32   29   32 1    
    33   30   31 1    
    34   30   37 1    
    35   33   34 1    
    36   33   35 1    
    37   35   36 1    
    38   35   37 1    
    39   37   38 1    
    40   38   39 1    
    41   39   40 1    
    42   39   44 1    
    43   40   41 1    
    44   40   43 1    
    45   41   42 1    
    46   41   48 1    
    47   44   45 1    
    48   44   46 1    
    49   46   47 1    
    50   46   48 1    
    51   48   49 1    
    52   49   50 1    
    53   49   51 1    
    54   51   52 1    
    55   51   53 1    
    56   51   54 1    
    57   54   55 1    
    58   54   56 1    
    59   56   57 1    
    60   56   58 1    
    61   58   59 1    
    62   58   60 1    
    63   60   61 1    
    64   60   62 1    
    65   60   63 1    
    66   63   64 1    
    67   63   72 1    
    68   64   65 1    
    69   64   66 1    
    70   66   67 1    
    71   66   68 1    
    72   68   69 1    
    73   68   70 1    
    74   70   71 1    
    75   70   72 1    
    76   72   73 1    
@<TRIPOS>SUBSTRUCTURE
     1 ****        1 GROUP             0       ****    0 ROOT    
@<TRIPOS>MOLECULE
Cpd3-4500-MRC
73   76    1
SMALL
USER_CHARGES


@<TRIPOS>ATOM
      1 C           7.4021   -1.2651    0.1655 C.3       1 ****        0.0000 
      2 H           8.4570   -0.9737    0.1156 H         1 ****        0.0000 
      3 H           7.2484   -2.2288   -0.3367 H         1 ****        0.0000 
      4 H           6.8302   -0.4417   -0.2810 H         1 ****        0.0000 
      5 C           6.9968   -1.4974    1.6275 C.3       1 ****        0.0000 
      6 C           7.7657   -0.4425    2.4633 C.3       1 ****        0.0000 
      7 H           8.8344   -0.6799    2.3881 H         1 ****        0.0000 
      8 H           7.6351    0.5431    1.9992 H         1 ****        0.0000 
      9 H           7.4318   -0.3232    3.5013 H         1 ****        0.0000 
     10 C           7.3258   -2.9186    2.2010 C.3       1 ****        0.0000 
     11 H           7.1247   -2.8723    3.2774 H         1 ****        0.0000 
     12 H           6.6312   -3.6967    1.8608 H         1 ****        0.0000 
     13 H           8.3990   -3.1402    2.1512 H         1 ****        0.0000 
     14 O           5.6572   -1.1025    1.8747 O.3       1 ****        0.0000 
     15 C           4.7240   -1.7645    1.1798 C.3       1 ****        0.0000 
     16 O           4.8892   -2.6499    0.3049 O.3       1 ****        0.0000 
     17 N           3.5526   -1.1426    1.4913 N.3       1 ****        0.0000 
     18 H           3.5093   -0.3056    2.0605 H         1 ****        0.0000 
     19 C           2.2033   -1.4917    0.9832 C.3       1 ****        0.0000 
     20 C           1.2393   -0.3439    1.1483 C.3       1 ****        0.0000 
     21 N           0.8929    0.2058   -0.0090 N.3       1 ****        0.0000 
     22 H           1.1537   -0.1963   -0.9018 H         1 ****        0.0000 
     23 O           0.9700    0.1460    2.2830 O.3       1 ****        0.0000 
     24 H           2.1631   -1.7017   -0.0925 H         1 ****        0.0000 
     25 C           1.7778   -2.8104    1.7455 C.3       1 ****        0.0000 
     26 H           2.0003   -2.7152    2.8148 H         1 ****        0.0000 
     27 H           2.3434   -3.7048    1.4568 H         1 ****        0.0000 
     28 C           0.3297   -3.3317    1.6089 C.3       1 ****        0.0000 
     29 C          -0.7027   -2.7400    2.3544 C.3       1 ****        0.0000 
     30 C          -2.0394   -3.0298    2.0010 C.3       1 ****        0.0000 
     31 H          -2.8654   -2.5276    2.4965 H         1 ****        0.0000 
     32 H          -0.4742   -2.0269    3.1426 H         1 ****        0.0000 
     33 C           0.0638   -4.3731    0.7122 C.3       1 ****        0.0000 
     34 H           0.8371   -4.7953    0.0774 H         1 ****        0.0000 
     35 C          -1.2331   -4.6611    0.3157 C.3       1 ****        0.0000 
     36 H          -1.5254   -5.4530   -0.3669 H         1 ****        0.0000 
     37 C          -2.3112   -3.9712    0.9632 C.3       1 ****        0.0000 
     38 O          -3.5808   -4.0754    0.3524 O.3       1 ****        0.0000 
     39 C          -3.9195   -2.9880   -0.3595 C.3       1 ****        0.0000 
     40 C          -3.2643   -2.6926   -1.5625 C.3       1 ****        0.0000 
     41 C          -3.3479   -1.3776   -2.0460 C.3       1 ****        0.0000 
     42 H          -2.7929   -1.0610   -2.9240 H         1 ****        0.0000 
     43 H          -2.5690   -3.4340   -1.9444 H         1 ****        0.0000 
     44 C          -4.8593   -2.1680    0.1991 C.3       1 ****        0.0000 
     45 H          -5.4129   -2.4176    1.0990 H         1 ****        0.0000 
     46 C          -5.0936   -0.9051   -0.4303 C.3       1 ****        0.0000 
     47 H          -5.8422   -0.2293   -0.0273 H         1 ****        0.0000 
     48 C          -4.2346   -0.4425   -1.4760 C.3       1 ****        0.0000 
     49 C          -4.2175    0.9953   -1.8647 C.3       1 ****        0.0000 
     50 O          -5.1721    1.7192   -1.6161 O.3       1 ****        0.0000 
     51 C          -2.9325    1.5236   -2.4502 C.3       1 ****        0.0000 
     52 H          -2.5784    0.9001   -3.2816 H         1 ****        0.0000 
     53 H          -3.1143    2.5070   -2.8997 H         1 ****        0.0000 
     54 N          -1.9646    1.7430   -1.3596 N.3       1 ****        0.0000 
     55 H          -2.3710    2.0296   -0.4772 H         1 ****        0.0000 
     56 C          -0.6135    1.4757   -1.4765 C.3       1 ****        0.0000 
     57 O          -0.1139    1.2672   -2.5574 O.3       1 ****        0.0000 
     58 C           0.2158    1.4873   -0.1181 C.3       1 ****        0.0000 
     59 H          -0.3907    1.6452    0.7821 H         1 ****        0.0000 
     60 C           1.3469    2.5236   -0.0954 C.3       1 ****        0.0000 
     61 H           1.9892    2.5054   -0.9824 H         1 ****        0.0000 
     62 H           2.1210    2.1598    0.5910 H         1 ****        0.0000 
     63 C           0.8160    3.8756    0.3355 C.3       1 ****        0.0000 
     64 C           0.8138    4.2531    1.6777 C.3       1 ****        0.0000 
     65 H           1.4662    3.7052    2.3506 H         1 ****        0.0000 
     66 C           0.1281    5.3738    2.0873 C.3       1 ****        0.0000 
     67 H           0.0289    5.5567    3.1541 H         1 ****        0.0000 
     68 C          -0.5189    6.2398    1.1180 C.3       1 ****        0.0000 
     69 H          -1.0639    7.1257    1.4343 H         1 ****        0.0000 
     70 C          -0.4246    5.9603   -0.2491 C.3       1 ****        0.0000 
     71 H          -0.6647    6.7567   -0.9487 H         1 ****        0.0000 
     72 C           0.1649    4.7428   -0.5853 C.3       1 ****        0.0000 
     73 H           0.3296    4.4790   -1.6263 H         1 ****        0.0000 
@<TRIPOS>BOND
     1    1    2 1    
     2    1    3 1    
     3    1    4 1    
     4    1    5 1    
     5    5    6 1    
     6    5   10 1    
     7    5   14 1    
     8    6    7 1    
     9    6    8 1    
    10    6    9 1    
    11   10   11 1    
    12   10   12 1    
    13   10   13 1    
    14   14   15 1    
    15   15   16 1    
    16   15   17 1    
    17   17   18 1    
    18   17   19 1    
    19   19   20 1    
    20   19   24 1    
    21   19   25 1    
    22   20   21 1    
    23   20   23 1    
    24   21   22 1    
    25   21   58 1    
    26   25   26 1    
    27   25   27 1    
    28   25   28 1    
    29   28   29 1    
    30   28   33 1    
    31   29   30 1    
    32   29   32 1    
    33   30   31 1    
    34   30   37 1    
    35   33   34 1    
    36   33   35 1    
    37   35   36 1    
    38   35   37 1    
    39   37   38 1    
    40   38   39 1    
    41   39   40 1    
    42   39   44 1    
    43   40   41 1    
    44   40   43 1    
    45   41   42 1    
    46   41   48 1    
    47   44   45 1    
    48   44   46 1    
    49   46   47 1    
    50   46   48 1    
    51   48   49 1    
    52   49   50 1    
    53   49   51 1    
    54   51   52 1    
    55   51   53 1    
    56   51   54 1    
    57   54   55 1    
    58   54   56 1    
    59   56   57 1    
    60   56   58 1    
    61   58   59 1    
    62   58   60 1    
    63   60   61 1    
    64   60   62 1    
    65   60   63 1    
    66   63   64 1    
    67   63   72 1    
    68   64   65 1    
    69   64   66 1    
    70   66   67 1    
    71   66   68 1    
    72   68   69 1    
    73   68   70 1    
    74   70   71 1    
    75   70   72 1    
    76   72   73 1    
@<TRIPOS>SUBSTRUCTURE
     1 ****        1 GROUP             0       ****    0 ROOT    
@<TRIPOS>MOLECULE
Cpd3-5000
73   76    1
SMALL
USER_CHARGES


@<TRIPOS>ATOM
      1 C           6.2818    0.9072   -1.3321 C.3       1 ****        0.0000 
      2 H           7.0699    1.1674   -2.0491 H         1 ****        0.0000 
      3 H           5.3972    0.9349   -1.9810 H         1 ****        0.0000 
      4 H           6.2210    1.6868   -0.5631 H         1 ****        0.0000 
      5 C           6.4288   -0.5070   -0.6444 C.3       1 ****        0.0000 
      6 C           7.6298   -0.4807    0.2382 C.3       1 ****        0.0000 
      7 H           8.5028   -0.1645   -0.3470 H         1 ****        0.0000 
      8 H           7.6054    0.2923    1.0164 H         1 ****        0.0000 
      9 H           7.8395   -1.4930    0.6055 H         1 ****        0.0000 
     10 C           6.6316   -1.6085   -1.7471 C.3       1 ****        0.0000 
     11 H           6.4866   -2.6787   -1.5497 H         1 ****        0.0000 
     12 H           5.8330   -1.4104   -2.4721 H         1 ****        0.0000 
     13 H           7.5634   -1.4376   -2.3017 H         1 ****        0.0000 
     14 O           5.3435   -0.8253    0.2401 O.3       1 ****        0.0000 
     15 C           4.0935   -0.8947   -0.1547 C.3       1 ****        0.0000 
     16 O           3.6015   -0.6049   -1.2275 O.3       1 ****        0.0000 
     17 N           3.4111   -1.3085    0.9242 N.3       1 ****        0.0000 
     18 H           3.9821   -1.5050    1.7377 H         1 ****        0.0000 
     19 C           1.9910   -1.7185    0.9564 C.3       1 ****        0.0000 
     20 C           1.1252   -0.4199    0.9071 C.3       1 ****        0.0000 
     21 N           1.1199    0.3109   -0.2297 N.3       1 ****        0.0000 
     22 H           1.7639    0.0054   -0.9486 H         1 ****        0.0000 
     23 O           0.4774   -0.1181    1.8725 O.3       1 ****        0.0000 
     24 H           1.7227   -2.2532    0.0378 H         1 ****        0.0000 
     25 C           1.6997   -2.7135    2.0478 C.3       1 ****        0.0000 
     26 H           1.7211   -2.1446    2.9861 H         1 ****        0.0000 
     27 H           2.3888   -3.5650    2.1121 H         1 ****        0.0000 
     28 C           0.3218   -3.3737    1.8862 C.3       1 ****        0.0000 
     29 C          -0.8495   -2.8533    2.4789 C.3       1 ****        0.0000 
     30 C          -2.1263   -3.2560    2.0781 C.3       1 ****        0.0000 
     31 H          -2.9696   -2.8105    2.5974 H         1 ****        0.0000 
     32 H          -0.8557   -2.0977    3.2580 H         1 ****        0.0000 
     33 C           0.1030   -4.2496    0.8378 C.3       1 ****        0.0000 
     34 H           1.0100   -4.5339    0.3129 H         1 ****        0.0000 
     35 C          -1.1728   -4.6231    0.3487 C.3       1 ****        0.0000 
     36 H          -1.3628   -5.2605   -0.5112 H         1 ****        0.0000 
     37 C          -2.2636   -4.0460    0.9855 C.3       1 ****        0.0000 
     38 O          -3.4819   -4.1946    0.2769 O.3       1 ****        0.0000 
     39 C          -3.8074   -3.0420   -0.3977 C.3       1 ****        0.0000 
     40 C          -2.9338   -2.5349   -1.3965 C.3       1 ****        0.0000 
     41 C          -3.1865   -1.2259   -1.8984 C.3       1 ****        0.0000 
     42 H          -2.4614   -0.8481   -2.6129 H         1 ****        0.0000 
     43 H          -2.1994   -3.2305   -1.7922 H         1 ****        0.0000 
     44 C          -4.8350   -2.2566    0.0758 C.3       1 ****        0.0000 
     45 H          -5.5692   -2.6671    0.7610 H         1 ****        0.0000 
     46 C          -4.9930   -0.8989   -0.4104 C.3       1 ****        0.0000 
     47 H          -5.9152   -0.3932   -0.1416 H         1 ****        0.0000 
     48 C          -4.1196   -0.3933   -1.3388 C.3       1 ****        0.0000 
     49 C          -4.2657    1.0548   -1.7813 C.3       1 ****        0.0000 
     50 O          -5.2287    1.7596   -1.4906 O.3       1 ****        0.0000 
     51 C          -3.0692    1.7201   -2.3609 C.3       1 ****        0.0000 
     52 H          -2.8360    1.3369   -3.3622 H         1 ****        0.0000 
     53 H          -3.2509    2.7904   -2.5225 H         1 ****        0.0000 
     54 N          -1.9588    1.7362   -1.3440 N.3       1 ****        0.0000 
     55 H          -2.1944    2.0971   -0.4284 H         1 ****        0.0000 
     56 C          -0.6028    1.5712   -1.6193 C.3       1 ****        0.0000 
     57 O          -0.2397    1.3751   -2.7920 O.3       1 ****        0.0000 
     58 C           0.3886    1.5508   -0.3511 C.3       1 ****        0.0000 
     59 H          -0.2196    1.7746    0.5355 H         1 ****        0.0000 
     60 C           1.4949    2.6395   -0.4740 C.3       1 ****        0.0000 
     61 H           2.0290    2.6374   -1.4318 H         1 ****        0.0000 
     62 H           2.2553    2.3946    0.2786 H         1 ****        0.0000 
     63 C           0.9654    4.0098   -0.1777 C.3       1 ****        0.0000 
     64 C           0.8802    4.4753    1.1524 C.3       1 ****        0.0000 
     65 H           1.1341    3.7665    1.9355 H         1 ****        0.0000 
     66 C           0.2411    5.7339    1.3507 C.3       1 ****        0.0000 
     67 H           0.0860    6.0857    2.3677 H         1 ****        0.0000 
     68 C          -0.1315    6.5619    0.2824 C.3       1 ****        0.0000 
     69 H          -0.5892    7.5283    0.4692 H         1 ****        0.0000 
     70 C           0.0741    6.1093   -1.0427 C.3       1 ****        0.0000 
     71 H          -0.2367    6.7094   -1.8940 H         1 ****        0.0000 
     72 C           0.5771    4.8559   -1.2287 C.3       1 ****        0.0000 
     73 H           0.7907    4.5046   -2.2345 H         1 ****        0.0000 
@<TRIPOS>BOND
     1    1    2 1    
     2    1    3 1    
     3    1    4 1    
     4    1    5 1    
     5    5    6 1    
     6    5   10 1    
     7    5   14 1    
     8    6    7 1    
     9    6    8 1    
    10    6    9 1    
    11   10   11 1    
    12   10   12 1    
    13   10   13 1    
    14   14   15 1    
    15   15   16 1    
    16   15   17 1    
    17   17   18 1    
    18   17   19 1    
    19   19   20 1    
    20   19   24 1    
    21   19   25 1    
    22   20   21 1    
    23   20   23 1    
    24   21   22 1    
    25   21   58 1    
    26   25   26 1    
    27   25   27 1    
    28   25   28 1    
    29   28   29 1    
    30   28   33 1    
    31   29   30 1    
    32   29   32 1    
    33   30   31 1    
    34   30   37 1    
    35   33   34 1    
    36   33   35 1    
    37   35   36 1    
    38   35   37 1    
    39   37   38 1    
    40   38   39 1    
    41   39   40 1    
    42   39   44 1    
    43   40   41 1    
    44   40   43 1    
    45   41   42 1    
    46   41   48 1    
    47   44   45 1    
    48   44   46 1    
    49   46   47 1    
    50   46   48 1    
    51   48   49 1    
    52   49   50 1    
    53   49   51 1    
    54   51   52 1    
    55   51   53 1    
    56   51   54 1    
    57   54   55 1    
    58   54   56 1    
    59   56   57 1    
    60   56   58 1    
    61   58   59 1    
    62   58   60 1    
    63   60   61 1    
    64   60   62 1    
    65   60   63 1    
    66   63   64 1    
    67   63   72 1    
    68   64   65 1    
    69   64   66 1    
    70   66   67 1    
    71   66   68 1    
    72   68   69 1    
    73   68   70 1    
    74   70   71 1    
    75   70   72 1    
    76   72   73 1    
@<TRIPOS>SUBSTRUCTURE
     1 ****        1 GROUP             0       ****    0 ROOT    
