@<TRIPOS>MOLECULE
Cpd3-1
73   76    1
SMALL
USER_CHARGES


@<TRIPOS>ATOM
      1 N1          6.9179   -7.3437    4.3304 N.am      1 ****       -0.5647 
      2 O2          9.1877   -9.1598    2.5635 O.2       1 ****       -0.4330 
      3 C3          7.4665   -4.6281    0.7356 C.ar      1 ****       -0.1243 
      4 N4          6.4552   -5.1762    7.1976 N.am      1 ****       -0.4452 
      5 O5          6.2095   -2.9313    7.3835 O.2       1 ****       -0.5225 
      6 C6          8.5668   -5.1348    1.4164 C.ar      1 ****       -0.1226 
      7 N7          6.6910   -5.4805   10.0005 N.am      1 ****       -0.4176 
      8 O8          6.5179   -7.6557    6.5296 O.2       1 ****       -0.5368 
      9 C9          6.4004   -4.0754    1.4350 C.ar      1 ****       -0.1226 
     10 O10         4.3951   -5.7166   10.2517 O.2       1 ****       -0.5642 
     11 C11         8.6100   -5.0946    2.8035 C.ar      1 ****       -0.1294 
     12 O12        12.0516   -6.2234    7.5099 O.3       1 ****       -0.2996 
     13 C13         6.4221   -4.0287    2.8228 C.ar      1 ****       -0.1294 
     14 C14         9.6398   -3.5414    8.0855 C.ar      1 ****       -0.1108 
     15 C15         9.8593   -4.8672   10.1009 C.ar      1 ****       -0.1108 
     16 C16        10.9346   -7.6235    4.3143 C.ar      1 ****       -0.0749 
     17 C17         9.5242   -8.4709    6.0871 C.ar      1 ****       -0.0749 
     18 C18        10.6674   -4.2688    7.4964 C.ar      1 ****       -0.1418 
     19 C19        10.8925   -5.5917    9.5090 C.ar      1 ****       -0.1418 
     20 C20        11.7320   -6.9775    5.2594 C.ar      1 ****       -0.1542 
     21 C21        10.3265   -7.8337    7.0238 C.ar      1 ****       -0.1542 
     22 C22         7.8879   -3.2783    9.8852 C.3       1 ****       -0.1028 
     23 C23         7.3065   -8.7315    3.9832 C.3       1 ****       -0.0069 
     24 C24         7.5410   -4.5377    5.0477 C.3       1 ****       -0.1149 
     25 C25         9.1880   -3.8887    9.3610 C.ar      1 ****       -0.0971 
     26 C26         7.5314   -4.5425    3.5267 C.ar      1 ****       -0.1031 
     27 C27         9.7777   -8.3051    4.7204 C.ar      1 ****       -0.2013 
     28 C28        11.2452   -5.3363    8.1844 C.ar      1 ****        0.1147 
     29 C29        11.3919   -7.0313    6.6092 C.ar      1 ****        0.1464 
     30 C30         8.8270   -8.8579    3.7023 C.2       1 ****        0.5368 
     31 C31         6.3966   -4.0341    7.8975 C.2       1 ****        0.5075 
     32 C32         6.6149   -6.9019    5.5579 C.2       1 ****        0.5016 
     33 C33         5.5382   -6.1555   10.3440 C.2       1 ****        0.6168 
     34 C34         6.6467   -4.1115    9.4338 C.3       1 ****        0.0391 
     35 C35         6.4325   -5.3797    5.7512 C.3       1 ****        0.0389 
     36 H36         5.7819   -3.5967    9.8622 H         1 ****        0.1059 
     37 H37         5.4453   -5.0933    5.3865 H         1 ****        0.0923 
     38 H38         7.4413   -4.6609   -0.3445 H         1 ****        0.1340 
     39 H39         9.3922   -5.5616    0.8639 H         1 ****        0.1359 
     40 H40         5.5508   -3.6796    0.8966 H         1 ****        0.1359 
     41 H41         9.4705   -5.4912    3.3228 H         1 ****        0.1369 
     42 H42         5.5875   -3.5962    3.3576 H         1 ****        0.1369 
     43 H43         9.1351   -2.7756    7.5124 H         1 ****        0.1420 
     44 H44         9.5359   -5.1215   11.1002 H         1 ****        0.1420 
     45 H45        11.1815   -7.5293    3.2646 H         1 ****        0.1474 
     46 H46         8.6708   -9.0320    6.4436 H         1 ****        0.1474 
     47 H47        10.9555   -4.0714    6.4749 H         1 ****        0.1434 
     48 H48        11.3613   -6.4085   10.0372 H         1 ****        0.1434 
     49 H49        12.5763   -6.3809    4.9480 H         1 ****        0.1490 
     50 H50        10.0784   -7.9000    8.0719 H         1 ****        0.1490 
     51 H51         7.9257   -3.2138   10.9738 H         1 ****        0.1010 
     52 H52         7.8048   -2.2453    9.5393 H         1 ****        0.1010 
     53 H53         6.7514   -9.0630    3.1046 H         1 ****        0.1137 
     54 H54         7.0468   -9.4463    4.7661 H         1 ****        0.1137 
     55 H55         8.5190   -4.8691    5.4012 H         1 ****        0.0933 
     56 H56         7.4677   -3.4900    5.3352 H         1 ****        0.0933 
     57 H57         6.9808   -6.6401    3.5996 H         1 ****        0.3152 
     58 H58         6.5598   -6.0583    7.6876 H         1 ****        0.3082 
     59 H59         7.5667   -5.9741   10.0538 H         1 ****        0.2721 
     60 O60         5.8823   -7.3842   10.7709 O.3       1 ****       -0.3401 
     61 C61         4.9538   -8.4162   11.1235 C.3       1 ****        0.3043 
     62 C62         5.8505   -9.5986   11.5226 C.3       1 ****       -0.2329 
     63 H63         5.2623  -10.4682   11.8163 H         1 ****        0.0757 
     64 H64         6.4971   -9.9009   10.6980 H         1 ****        0.0757 
     65 H65         6.4992   -9.3399   12.3600 H         1 ****        0.0757 
     66 C66         4.0814   -8.0147   12.3313 C.3       1 ****       -0.2329 
     67 H67         4.6962   -7.6780   13.1661 H         1 ****        0.0757 
     68 H68         3.3980   -7.2018   12.0865 H         1 ****        0.0757 
     69 H69         3.4761   -8.8510   12.6806 H         1 ****        0.0757 
     70 C70         4.0826   -8.8267    9.9177 C.3       1 ****       -0.2329 
     71 H71         3.4009   -8.0297    9.6208 H         1 ****        0.0757 
     72 H72         4.6990   -9.0597    9.0486 H         1 ****        0.0757 
     73 H73         3.4775   -9.7049   10.1419 H         1 ****        0.0757 
@<TRIPOS>BOND
     1    1   57 1    
     2    1   23 1    
     3    1   32 am   BACKBONE|DICT|INTERRES
     4    2   30 2    
     5    3    6 ar   
     6    3    9 ar   
     7    3   38 1    
     8    4   58 1    
     9    4   31 am   BACKBONE|DICT|INTERRES
    10    4   35 1    
    11    5   31 2    
    12    6   11 ar   
    13    6   39 1    
    14    7   59 1    
    15    7   33 am   BACKBONE|DICT|INTERRES
    16    7   34 1    
    17    8   32 2    
    18    9   13 ar   
    19    9   40 1    
    20   10   33 2    
    21   11   26 ar   
    22   11   41 1    
    23   12   28 1    
    24   12   29 1    
    25   13   26 ar   
    26   13   42 1    
    27   14   18 ar   
    28   14   25 ar   
    29   14   43 1    
    30   15   19 ar   
    31   15   25 ar   
    32   15   44 1    
    33   16   20 ar   
    34   16   27 ar   
    35   16   45 1    
    36   17   21 ar   
    37   17   27 ar   
    38   17   46 1    
    39   18   28 ar   
    40   18   47 1    
    41   19   28 ar   
    42   19   48 1    
    43   20   29 ar   
    44   20   49 1    
    45   21   29 ar   
    46   21   50 1    
    47   22   25 1    
    48   22   34 1    
    49   22   51 1    
    50   22   52 1    
    51   23   30 1    
    52   23   53 1    
    53   23   54 1    
    54   24   26 1    
    55   24   35 1    
    56   24   55 1    
    57   24   56 1    
    58   27   30 1    
    59   31   34 1    
    60   32   35 1    
    61   33   60 1    
    62   34   36 1    
    63   35   37 1    
    64   60   61 1    
    65   61   62 1    
    66   61   66 1    
    67   61   70 1    
    68   62   63 1    
    69   62   64 1    
    70   62   65 1    
    71   66   67 1    
    72   66   68 1    
    73   66   69 1    
    74   70   71 1    
    75   70   72 1    
    76   70   73 1    
@<TRIPOS>SUBSTRUCTURE
     1 ****        1 GROUP             0       ****    0 ROOT    
@<TRIPOS>MOLECULE
Cpd3-2
73   76    1
SMALL
USER_CHARGES


@<TRIPOS>ATOM
      1 N1          6.9292   -7.3299    4.3085 N.am      1 ****       -0.5647 
      2 O2          9.2016   -9.1807    2.5705 O.2       1 ****       -0.4330 
      3 C3          7.4717   -4.5433    0.7419 C.ar      1 ****       -0.1243 
      4 N4          6.4916   -5.1951    7.1976 N.am      1 ****       -0.4452 
      5 O5          6.2028   -2.9586    7.3951 O.2       1 ****       -0.5225 
      6 C6          6.4231   -3.9825    1.4612 C.ar      1 ****       -0.1226 
      7 N7          6.7434   -5.5079   10.0110 N.am      1 ****       -0.4176 
      8 O8          6.4371   -7.6668    6.4838 O.2       1 ****       -0.5368 
      9 C9          8.5646   -5.0903    1.4033 C.ar      1 ****       -0.1226 
     10 O10         5.7611   -7.4295   10.7782 O.2       1 ****       -0.5642 
     11 C11         6.4551   -3.9677    2.8495 C.ar      1 ****       -0.1294 
     12 O12        12.0478   -6.2196    7.5129 O.3       1 ****       -0.2996 
     13 C13         8.6178   -5.0830    2.7906 C.ar      1 ****       -0.1294 
     14 C14         9.6444   -3.5318    8.0907 C.ar      1 ****       -0.1108 
     15 C15         9.8794   -4.8451   10.1127 C.ar      1 ****       -0.1108 
     16 C16        10.9427   -7.6457    4.3243 C.ar      1 ****       -0.0749 
     17 C17         9.4956   -8.4438    6.0906 C.ar      1 ****       -0.0749 
     18 C18        10.6698   -4.2607    7.4997 C.ar      1 ****       -0.1418 
     19 C19        10.9092   -5.5720    9.5183 C.ar      1 ****       -0.1418 
     20 C20        11.7381   -6.9982    5.2703 C.ar      1 ****       -0.1542 
     21 C21        10.2953   -7.8040    7.0281 C.ar      1 ****       -0.1542 
     22 C22         7.8892   -3.2804    9.8890 C.3       1 ****       -0.1028 
     23 C23         7.3054   -8.7206    3.9590 C.3       1 ****       -0.0069 
     24 C24         7.5773   -4.5501    5.0543 C.3       1 ****       -0.1149 
     25 C25         9.1985   -3.8756    9.3692 C.ar      1 ****       -0.0971 
     26 C26         7.5568   -4.5228    3.5337 C.ar      1 ****       -0.1031 
     27 C27         9.7708   -8.3049    4.7248 C.ar      1 ****       -0.2013 
     28 C28        11.2509   -5.3254    8.1893 C.ar      1 ****        0.1147 
     29 C29        11.3803   -7.0262    6.6161 C.ar      1 ****        0.1464 
     30 C30         8.8284   -8.8622    3.7008 C.2       1 ****        0.5368 
     31 C31         6.4161   -4.0587    7.9038 C.2       1 ****        0.5075 
     32 C32         6.5924   -6.9002    5.5311 C.2       1 ****        0.5016 
     33 C33         5.6512   -6.3189   10.2737 C.2       1 ****        0.6168 
     34 C34         6.6612   -4.1372    9.4416 C.3       1 ****        0.0391 
     35 C35         6.4530   -5.3778    5.7490 C.3       1 ****        0.0389 
     36 H36         5.7878   -3.6434    9.8742 H         1 ****        0.1059 
     37 H37         5.4713   -5.0608    5.3949 H         1 ****        0.0923 
     38 H38         7.4387   -4.5508   -0.3385 H         1 ****        0.1340 
     39 H39         5.5794   -3.5552    0.9378 H         1 ****        0.1359 
     40 H40         9.3764   -5.5228    0.8353 H         1 ****        0.1359 
     41 H41         5.6345   -3.5280    3.3997 H         1 ****        0.1369 
     42 H42         9.4728   -5.5108    3.2941 H         1 ****        0.1369 
     43 H43         9.1340   -2.7717    7.5152 H         1 ****        0.1420 
     44 H44         9.5629   -5.0960   11.1151 H         1 ****        0.1420 
     45 H45        11.2058   -7.5719    3.2769 H         1 ****        0.1474 
     46 H46         8.6296   -8.9873    6.4444 H         1 ****        0.1474 
     47 H47        10.9510   -4.0693    6.4751 H         1 ****        0.1434 
     48 H48        11.3811   -6.3862   10.0478 H         1 ****        0.1434 
     49 H49        12.5966   -6.4211    4.9612 H         1 ****        0.1490 
     50 H50        10.0322   -7.8516    8.0737 H         1 ****        0.1490 
     51 H51         7.9265   -3.2091   10.9772 H         1 ****        0.1010 
     52 H52         7.7914   -2.2504    9.5376 H         1 ****        0.1010 
     53 H53         6.7593   -9.0401    3.0705 H         1 ****        0.1137 
     54 H54         7.0283   -9.4369    4.7348 H         1 ****        0.1137 
     55 H55         8.5491   -4.9140    5.3934 H         1 ****        0.0933 
     56 H56         7.5330   -3.5074    5.3661 H         1 ****        0.0933 
     57 H57         7.0313   -6.6183    3.5899 H         1 ****        0.3152 
     58 H58         6.6121   -6.0802    7.6796 H         1 ****        0.3082 
     59 H59         7.6516   -5.8998   10.1981 H         1 ****        0.2721 
     60 O60         4.4883   -5.7526    9.8683 O.3       1 ****       -0.3401 
     61 C61         3.2247   -6.4213    9.8210 C.3       1 ****        0.3043 
     62 C62         3.2659   -7.6373    8.8716 C.3       1 ****       -0.2329 
     63 H63         2.2733   -8.0607    8.7198 H         1 ****        0.0757 
     64 H64         3.6638   -7.3611    7.8944 H         1 ****        0.0757 
     65 H65         3.9023   -8.4326    9.2595 H         1 ****        0.0757 
     66 C66         2.7402   -6.8248   11.2284 C.3       1 ****       -0.2329 
     67 H67         3.3665   -7.6018   11.6661 H         1 ****        0.0757 
     68 H68         2.7593   -5.9741   11.9096 H         1 ****        0.0757 
     69 H69         1.7201   -7.2078   11.2033 H         1 ****        0.0757 
     70 C70         2.2740   -5.3630    9.2404 C.3       1 ****       -0.2329 
     71 H71         2.2332   -4.4763    9.8736 H         1 ****        0.0757 
     72 H72         2.6022   -5.0354    8.2532 H         1 ****        0.0757 
     73 H73         1.2581   -5.7459    9.1411 H         1 ****        0.0757 
@<TRIPOS>BOND
     1    1   57 1    
     2    1   23 1    
     3    1   32 am   BACKBONE|DICT|INTERRES
     4    2   30 2    
     5    3    6 ar   
     6    3    9 ar   
     7    3   38 1    
     8    4   58 1    
     9    4   31 am   BACKBONE|DICT|INTERRES
    10    4   35 1    
    11    5   31 2    
    12    6   11 ar   
    13    6   39 1    
    14    7   59 1    
    15    7   33 am   BACKBONE|DICT|INTERRES
    16    7   34 1    
    17    8   32 2    
    18    9   13 ar   
    19    9   40 1    
    20   10   33 2    
    21   11   26 ar   
    22   11   41 1    
    23   12   28 1    
    24   12   29 1    
    25   13   26 ar   
    26   13   42 1    
    27   14   18 ar   
    28   14   25 ar   
    29   14   43 1    
    30   15   19 ar   
    31   15   25 ar   
    32   15   44 1    
    33   16   20 ar   
    34   16   27 ar   
    35   16   45 1    
    36   17   21 ar   
    37   17   27 ar   
    38   17   46 1    
    39   18   28 ar   
    40   18   47 1    
    41   19   28 ar   
    42   19   48 1    
    43   20   29 ar   
    44   20   49 1    
    45   21   29 ar   
    46   21   50 1    
    47   22   25 1    
    48   22   34 1    
    49   22   51 1    
    50   22   52 1    
    51   23   30 1    
    52   23   53 1    
    53   23   54 1    
    54   24   26 1    
    55   24   35 1    
    56   24   55 1    
    57   24   56 1    
    58   27   30 1    
    59   31   34 1    
    60   32   35 1    
    61   33   60 1    
    62   34   36 1    
    63   35   37 1    
    64   60   61 1    
    65   61   62 1    
    66   61   66 1    
    67   61   70 1    
    68   62   63 1    
    69   62   64 1    
    70   62   65 1    
    71   66   67 1    
    72   66   68 1    
    73   66   69 1    
    74   70   71 1    
    75   70   72 1    
    76   70   73 1    
@<TRIPOS>SUBSTRUCTURE
     1 ****        1 GROUP             0       ****    0 ROOT    
@<TRIPOS>MOLECULE
Cpd3-3
73   76    1
SMALL
USER_CHARGES


@<TRIPOS>ATOM
      1 N1          7.2060   -6.8952    3.9306 N.am      1 ****       -0.5647 
      2 O2          8.5023  -10.2803    4.1738 O.2       1 ****       -0.4330 
      3 C3          8.0695   -3.6684    0.7181 C.ar      1 ****       -0.1243 
      4 N4          6.5455   -5.1071    7.0023 N.am      1 ****       -0.4452 
      5 O5          6.3074   -2.9010    7.4643 O.2       1 ****       -0.5225 
      6 C6          9.2075   -3.8385    1.4965 C.ar      1 ****       -0.1226 
      7 N7          6.6345   -5.7764    9.7450 N.am      1 ****       -0.4176 
      8 O8          6.5082   -7.4854    5.9951 O.2       1 ****       -0.5368 
      9 C9          6.8119   -3.6541    1.3080 C.ar      1 ****       -0.1226 
     10 O10         4.3293   -6.0424    9.8224 O.2       1 ****       -0.5642 
     11 C11         9.0961   -4.0138    2.8694 C.ar      1 ****       -0.1294 
     12 O12        12.1217   -6.0629    7.3773 O.3       1 ****       -0.2996 
     13 C13         6.6791   -3.8275    2.6793 C.ar      1 ****       -0.1294 
     14 C14         9.6820   -3.5080    8.2983 C.ar      1 ****       -0.1108 
     15 C15         9.7724   -5.1917   10.0373 C.ar      1 ****       -0.1108 
     16 C16        10.1304   -8.8624    6.1213 C.ar      1 ****       -0.0749 
     17 C17        10.2308   -7.1289    4.4349 C.ar      1 ****       -0.0749 
     18 C18        10.7486   -4.1210    7.6498 C.ar      1 ****       -0.1418 
     19 C19        10.8372   -5.8061    9.3826 C.ar      1 ****       -0.1418 
     20 C20        11.0135   -8.1370    6.9163 C.ar      1 ****       -0.1542 
     21 C21        11.1197   -6.4109    5.2310 C.ar      1 ****       -0.1542 
     22 C22         7.8156   -3.5754   10.0003 C.3       1 ****       -0.1028 
     23 C23         7.5100   -8.2472    3.3929 C.3       1 ****       -0.0069 
     24 C24         7.7037   -4.1936    4.9897 C.3       1 ****       -0.1149 
     25 C25         9.1493   -4.0846    9.4542 C.ar      1 ****       -0.0971 
     26 C26         7.8229   -4.0517    3.4772 C.ar      1 ****       -0.1031 
     27 C27         9.6755   -8.3255    4.9095 C.ar      1 ****       -0.2013 
     28 C28        11.2767   -5.3087    8.1555 C.ar      1 ****        0.1147 
     29 C29        11.4595   -6.8849    6.4966 C.ar      1 ****        0.1464 
     30 C30         8.6118   -9.0529    4.1420 C.2       1 ****        0.5368 
     31 C31         6.4567   -4.0637    7.8399 C.2       1 ****        0.5075 
     32 C32         6.7573   -6.6122    5.1625 C.2       1 ****        0.5016 
     33 C33         5.4681   -6.4928    9.9142 C.2       1 ****        0.6168 
     34 C34         6.6136   -4.3436    9.3653 C.3       1 ****        0.0391 
     35 C35         6.5794   -5.1245    5.5430 C.3       1 ****        0.0389 
     36 H36         5.7194   -3.8924    9.8048 H         1 ****        0.1059 
     37 H37         5.6018   -4.7935    5.1925 H         1 ****        0.0923 
     38 H38         8.1642   -3.5256   -0.3493 H         1 ****        0.1340 
     39 H39        10.1834   -3.8207    1.0319 H         1 ****        0.1359 
     40 H40         5.9336   -3.4942    0.6980 H         1 ****        0.1359 
     41 H41         9.9918   -4.1201    3.4642 H         1 ****        0.1369 
     42 H42         5.6939   -3.7867    3.1222 H         1 ****        0.1369 
     43 H43         9.2127   -2.6431    7.8494 H         1 ****        0.1420 
     44 H44         9.3856   -5.6264   10.9480 H         1 ****        0.1420 
     45 H45         9.7446   -9.8044    6.4890 H         1 ****        0.1474 
     46 H46         9.9374   -6.7178    3.4793 H         1 ****        0.1474 
     47 H47        11.1057   -3.7321    6.7090 H         1 ****        0.1434 
     48 H48        11.2674   -6.7147    9.7753 H         1 ****        0.1434 
     49 H49        11.2964   -8.5060    7.8902 H         1 ****        0.1490 
     50 H50        11.4943   -5.4528    4.9066 H         1 ****        0.1490 
     51 H51         7.8014   -3.6751   11.0868 H         1 ****        0.1010 
     52 H52         7.7288   -2.5034    9.8085 H         1 ****        0.1010 
     53 H53         7.8024   -8.1794    2.3455 H         1 ****        0.1137 
     54 H54         6.5916   -8.8373    3.4259 H         1 ****        0.1137 
     55 H55         8.6571   -4.5485    5.3842 H         1 ****        0.0933 
     56 H56         7.5885   -3.1798    5.3708 H         1 ****        0.0933 
     57 H57         7.3613   -6.0961    3.3232 H         1 ****        0.3152 
     58 H58         6.6110   -6.0468    7.3796 H         1 ****        0.3082 
     59 H59         7.5061   -6.2804    9.7529 H         1 ****        0.2721 
     60 O60         5.7950   -7.7745   10.1580 O.3       1 ****       -0.3401 
     61 C61         4.8590   -8.8556   10.2353 C.3       1 ****        0.3043 
     62 C62         5.7397  -10.0875   10.4966 C.3       1 ****       -0.2329 
     63 H63         5.1449  -10.9976   10.5760 H         1 ****        0.0757 
     64 H64         6.4619  -10.2345    9.6926 H         1 ****        0.0757 
     65 H65         6.3072   -9.9811   11.4215 H         1 ****        0.0757 
     66 C66         3.8750   -8.6792   11.4105 C.3       1 ****       -0.2329 
     67 H67         4.4064   -8.4942   12.3440 H         1 ****        0.0757 
     68 H68         3.1999   -7.8385   11.2522 H         1 ****        0.0757 
     69 H69         3.2580   -9.5669   11.5494 H         1 ****        0.0757 
     70 C70         4.1076   -9.0461    8.9008 C.3       1 ****       -0.2329 
     71 H71         3.4393   -8.2113    8.6896 H         1 ****        0.0757 
     72 H72         4.8041   -9.1156    8.0638 H         1 ****        0.0757 
     73 H73         3.5033   -9.9529    8.9071 H         1 ****        0.0757 
@<TRIPOS>BOND
     1    1   57 1    
     2    1   23 1    
     3    1   32 am   BACKBONE|DICT|INTERRES
     4    2   30 2    
     5    3    6 ar   
     6    3    9 ar   
     7    3   38 1    
     8    4   58 1    
     9    4   31 am   BACKBONE|DICT|INTERRES
    10    4   35 1    
    11    5   31 2    
    12    6   11 ar   
    13    6   39 1    
    14    7   59 1    
    15    7   33 am   BACKBONE|DICT|INTERRES
    16    7   34 1    
    17    8   32 2    
    18    9   13 ar   
    19    9   40 1    
    20   10   33 2    
    21   11   26 ar   
    22   11   41 1    
    23   12   28 1    
    24   12   29 1    
    25   13   26 ar   
    26   13   42 1    
    27   14   18 ar   
    28   14   25 ar   
    29   14   43 1    
    30   15   19 ar   
    31   15   25 ar   
    32   15   44 1    
    33   16   20 ar   
    34   16   27 ar   
    35   16   45 1    
    36   17   21 ar   
    37   17   27 ar   
    38   17   46 1    
    39   18   28 ar   
    40   18   47 1    
    41   19   28 ar   
    42   19   48 1    
    43   20   29 ar   
    44   20   49 1    
    45   21   29 ar   
    46   21   50 1    
    47   22   25 1    
    48   22   34 1    
    49   22   51 1    
    50   22   52 1    
    51   23   30 1    
    52   23   53 1    
    53   23   54 1    
    54   24   26 1    
    55   24   35 1    
    56   24   55 1    
    57   24   56 1    
    58   27   30 1    
    59   31   34 1    
    60   32   35 1    
    61   33   60 1    
    62   34   36 1    
    63   35   37 1    
    64   60   61 1    
    65   61   62 1    
    66   61   66 1    
    67   61   70 1    
    68   62   63 1    
    69   62   64 1    
    70   62   65 1    
    71   66   67 1    
    72   66   68 1    
    73   66   69 1    
    74   70   71 1    
    75   70   72 1    
    76   70   73 1    
@<TRIPOS>SUBSTRUCTURE
     1 ****        1 GROUP             0       ****    0 ROOT    
@<TRIPOS>MOLECULE
Cpd3-4-MEC
73   76    1
SMALL
USER_CHARGES


@<TRIPOS>ATOM
      1 N1          6.7704   -7.7628    4.8386 N.am      1 ****       -0.5647 
      2 O2          8.7643  -10.3017    3.7846 O.2       1 ****       -0.4330 
      3 C3          2.9411  -10.0676    5.4350 C.ar      1 ****       -0.1243 
      4 N4          6.4609   -4.7893    6.8950 N.am      1 ****       -0.4452 
      5 O5          5.7704   -4.8376    9.0494 O.2       1 ****       -0.5225 
      6 C6          3.2941   -9.7505    6.7412 C.ar      1 ****       -0.1226 
      7 N7          5.8972   -1.9169    8.6668 N.am      1 ****       -0.4176 
      8 O8          7.2303   -5.5688    4.5079 O.2       1 ****       -0.5368 
      9 C9          3.0566   -9.1192    4.4257 C.ar      1 ****       -0.1226 
     10 O10         7.1446   -0.0076    8.2365 O.2       1 ****       -0.5642 
     11 C11         3.7588   -8.4791    7.0515 C.ar      1 ****       -0.1294 
     12 O12        12.0671   -6.3101    7.5743 O.3       1 ****       -0.2996 
     13 C13         3.5185   -7.8418    4.7150 C.ar      1 ****       -0.1294 
     14 C14        10.2541   -3.2489    8.4119 C.ar      1 ****       -0.1108 
     15 C15         9.2512   -5.1221    9.5777 C.ar      1 ****       -0.1108 
     16 C16        10.0390   -7.0324    4.6140 C.ar      1 ****       -0.0749 
     17 C17        10.4419   -9.0858    5.8319 C.ar      1 ****       -0.0749 
     18 C18        11.2670   -4.0835    7.9450 C.ar      1 ****       -0.1418 
     19 C19        10.2605   -5.9534    9.1054 C.ar      1 ****       -0.1418 
     20 C20        10.8793   -6.3547    5.4864 C.ar      1 ****       -0.1542 
     21 C21        11.2786   -8.3977    6.7102 C.ar      1 ****       -0.1542 
     22 C22         8.0109   -2.9247    9.5369 C.3       1 ****       -0.1028 
     23 C23         7.4406   -8.3124    3.6357 C.3       1 ****       -0.0069 
     24 C24         4.4588   -6.1405    6.3626 C.3       1 ****       -0.1149 
     25 C25         9.2202   -3.7822    9.1861 C.ar      1 ****       -0.0971 
     26 C26         3.8517   -7.4969    6.0428 C.ar      1 ****       -0.1031 
     27 C27         9.7572   -8.3876    4.8265 C.ar      1 ****       -0.2013 
     28 C28        11.2341   -5.4451    8.2440 C.ar      1 ****        0.1147 
     29 C29        11.4458   -7.0217    6.5736 C.ar      1 ****        0.1464 
     30 C30         8.7361   -9.0860    3.9850 C.2       1 ****        0.5368 
     31 C31         6.3417   -4.2614    8.1210 C.2       1 ****        0.5075 
     32 C32         6.7257   -6.4682    5.1820 C.2       1 ****        0.5016 
     33 C33         6.1055   -0.5564    8.5966 C.2       1 ****        0.6168 
     34 C34         6.9804   -2.8671    8.3614 C.3       1 ****        0.0391 
     35 C35         6.0032   -6.1160    6.4924 C.3       1 ****        0.0389 
     36 H36         7.4922   -2.5517    7.4477 H         1 ****        0.1059 
     37 H37         6.3185   -6.8276    7.2583 H         1 ****        0.0923 
     38 H38         2.5804  -11.0596    5.2016 H         1 ****        0.1340 
     39 H39         3.2100  -10.4972    7.5181 H         1 ****        0.1359 
     40 H40         2.7903   -9.3782    3.4107 H         1 ****        0.1359 
     41 H41         4.0435   -8.2447    8.0684 H         1 ****        0.1369 
     42 H42         3.6234   -7.1176    3.9190 H         1 ****        0.1369 
     43 H43        10.2401   -2.2081    8.1198 H         1 ****        0.1420 
     44 H44         8.4551   -5.5380   10.1796 H         1 ****        0.1420 
     45 H45         9.5626   -6.4672    3.8243 H         1 ****        0.1474 
     46 H46        10.2738  -10.1439    5.9852 H         1 ****        0.1474 
     47 H47        12.0302   -3.6998    7.2849 H         1 ****        0.1434 
     48 H48        10.2445   -7.0085    9.3319 H         1 ****        0.1434 
     49 H49        11.0251   -5.2915    5.3718 H         1 ****        0.1490 
     50 H50        11.7398   -8.9098    7.5413 H         1 ****        0.1490 
     51 H51         7.5395   -3.2916   10.4513 H         1 ****        0.1010 
     52 H52         8.3668   -1.9230    9.7845 H         1 ****        0.1010 
     53 H53         7.6947   -7.5385    2.9089 H         1 ****        0.1137 
     54 H54         6.7585   -8.9765    3.1032 H         1 ****        0.1137 
     55 H55         4.1390   -5.4204    5.6078 H         1 ****        0.0933 
     56 H56         4.0109   -5.8052    7.2989 H         1 ****        0.0933 
     57 H57         6.2413   -8.4072    5.4148 H         1 ****        0.3152 
     58 H58         6.9794   -4.3224    6.1598 H         1 ****        0.3082 
     59 H59         5.0407   -2.2511    9.0796 H         1 ****        0.2721 
     60 O60         4.9796    0.0656    8.9949 O.3       1 ****       -0.3401 
     61 C61         4.8105    1.4861    9.0655 C.3       1 ****        0.3043 
     62 C62         3.3702    1.6601    9.5725 C.3       1 ****       -0.2329 
     63 H63         3.1041    2.7124    9.6746 H         1 ****        0.0757 
     64 H64         2.6520    1.2022    8.8916 H         1 ****        0.0757 
     65 H65         3.2328    1.1888   10.5463 H         1 ****        0.0757 
     66 C66         5.7832    2.1262   10.0781 C.3       1 ****       -0.2329 
     67 H67         5.7235    1.6316   11.0476 H         1 ****        0.0757 
     68 H68         6.8187    2.0573    9.7450 H         1 ****        0.0757 
     69 H69         5.5621    3.1826   10.2299 H         1 ****        0.0757 
     70 C70         4.9402    2.1450    7.6762 C.3       1 ****       -0.2329 
     71 H71         5.9560    2.0751    7.2875 H         1 ****        0.0757 
     72 H72         4.2841    1.6647    6.9503 H         1 ****        0.0757 
     73 H73         4.6793    3.2026    7.7109 H         1 ****        0.0757 
@<TRIPOS>BOND
     1    1   57 1    
     2    1   23 1    
     3    1   32 am   BACKBONE|DICT|INTERRES
     4    2   30 2    
     5    3    6 ar   
     6    3    9 ar   
     7    3   38 1    
     8    4   58 1    
     9    4   31 am   BACKBONE|DICT|INTERRES
    10    4   35 1    
    11    5   31 2    
    12    6   11 ar   
    13    6   39 1    
    14    7   59 1    
    15    7   33 am   BACKBONE|DICT|INTERRES
    16    7   34 1    
    17    8   32 2    
    18    9   13 ar   
    19    9   40 1    
    20   10   33 2    
    21   11   26 ar   
    22   11   41 1    
    23   12   28 1    
    24   12   29 1    
    25   13   26 ar   
    26   13   42 1    
    27   14   18 ar   
    28   14   25 ar   
    29   14   43 1    
    30   15   19 ar   
    31   15   25 ar   
    32   15   44 1    
    33   16   20 ar   
    34   16   27 ar   
    35   16   45 1    
    36   17   21 ar   
    37   17   27 ar   
    38   17   46 1    
    39   18   28 ar   
    40   18   47 1    
    41   19   28 ar   
    42   19   48 1    
    43   20   29 ar   
    44   20   49 1    
    45   21   29 ar   
    46   21   50 1    
    47   22   25 1    
    48   22   34 1    
    49   22   51 1    
    50   22   52 1    
    51   23   30 1    
    52   23   53 1    
    53   23   54 1    
    54   24   26 1    
    55   24   35 1    
    56   24   55 1    
    57   24   56 1    
    58   27   30 1    
    59   31   34 1    
    60   32   35 1    
    61   33   60 1    
    62   34   36 1    
    63   35   37 1    
    64   60   61 1    
    65   61   62 1    
    66   61   66 1    
    67   61   70 1    
    68   62   63 1    
    69   62   64 1    
    70   62   65 1    
    71   66   67 1    
    72   66   68 1    
    73   66   69 1    
    74   70   71 1    
    75   70   72 1    
    76   70   73 1    
@<TRIPOS>SUBSTRUCTURE
     1 ****        1 GROUP             0       ****    0 ROOT    
@<TRIPOS>MOLECULE
Cpd3-5
73   76    1
SMALL
USER_CHARGES


@<TRIPOS>ATOM
      1 N1          6.7465   -7.7705    4.8076 N.am      1 ****       -0.5647 
      2 O2          8.7757  -10.2963    3.7850 O.2       1 ****       -0.4330 
      3 C3          2.9531  -10.1344    5.4152 C.ar      1 ****       -0.1243 
      4 N4          6.3660   -4.7832    6.8377 N.am      1 ****       -0.4452 
      5 O5          5.9546   -4.9760    9.0549 O.2       1 ****       -0.5225 
      6 C6          3.3096   -9.8109    6.7189 C.ar      1 ****       -0.1226 
      7 N7          5.9633   -1.9006    8.5371 N.am      1 ****       -0.4176 
      8 O8          7.1383   -5.5719    4.4332 O.2       1 ****       -0.5368 
      9 C9          3.0424   -9.1836    4.4056 C.ar      1 ****       -0.1226 
     10 O10         5.7118   -1.4163    6.2802 O.2       1 ****       -0.5642 
     11 C11         3.7511   -8.5305    7.0263 C.ar      1 ****       -0.1294 
     12 O12        12.0642   -6.3144    7.6021 O.3       1 ****       -0.2996 
     13 C13         3.4807   -7.8974    4.6921 C.ar      1 ****       -0.1294 
     14 C14        10.3008   -3.2234    8.4279 C.ar      1 ****       -0.1108 
     15 C15         9.2792   -5.0742    9.6124 C.ar      1 ****       -0.1108 
     16 C16        10.4388   -9.0794    5.8374 C.ar      1 ****       -0.0749 
     17 C17         9.9968   -7.0129    4.6572 C.ar      1 ****       -0.0749 
     18 C18        11.3052   -4.0732    7.9699 C.ar      1 ****       -0.1418 
     19 C19        10.2792   -5.9210    9.1481 C.ar      1 ****       -0.1418 
     20 C20        11.2739   -8.3945    6.7199 C.ar      1 ****       -0.1542 
     21 C21        10.8357   -6.3382    5.5338 C.ar      1 ****       -0.1542 
     22 C22         8.0371   -2.8799    9.5100 C.3       1 ****       -0.1028 
     23 C23         7.4368   -8.3201    3.6169 C.3       1 ****       -0.0069 
     24 C24         4.3999   -6.1785    6.3326 C.3       1 ****       -0.1149 
     25 C25         9.2575   -3.7397    9.2016 C.ar      1 ****       -0.0971 
     26 C26         3.8159   -7.5460    6.0177 C.ar      1 ****       -0.1031 
     27 C27         9.7390   -8.3766    4.8451 C.ar      1 ****       -0.2013 
     28 C28        11.2539   -5.4323    8.2771 C.ar      1 ****        0.1147 
     29 C29        11.4252   -7.0148    6.6034 C.ar      1 ****        0.1464 
     30 C30         8.7330   -9.0816    3.9891 C.2       1 ****        0.5368 
     31 C31         6.3813   -4.3277    8.0973 C.2       1 ****        0.5075 
     32 C32         6.6637   -6.4717    5.1272 C.2       1 ****        0.5016 
     33 C33         5.3979   -1.2536    7.4574 C.2       1 ****        0.6168 
     34 C34         7.0053   -2.9258    8.3434 C.3       1 ****        0.0391 
     35 C35         5.9432   -6.1217    6.4385 C.3       1 ****        0.0389 
     36 H36         7.5850   -2.6690    7.4512 H         1 ****        0.1059 
     37 H37         6.2805   -6.8273    7.2009 H         1 ****        0.0923 
     38 H38         2.6109  -11.1333    5.1840 H         1 ****        0.1340 
     39 H39         3.2470  -10.5596    7.4959 H         1 ****        0.1359 
     40 H40         2.7742   -9.4475    3.3923 H         1 ****        0.1359 
     41 H41         4.0400   -8.2909    8.0409 H         1 ****        0.1369 
     42 H42         3.5662   -7.1707    3.8958 H         1 ****        0.1369 
     43 H43        10.2979   -2.1881    8.1185 H         1 ****        0.1420 
     44 H44         8.4752   -5.4786   10.2120 H         1 ****        0.1420 
     45 H45        10.2885  -10.1425    5.9737 H         1 ****        0.1474 
     46 H46         9.5080   -6.4413    3.8796 H         1 ****        0.1474 
     47 H47        12.0705   -3.7053    7.3035 H         1 ****        0.1434 
     48 H48        10.2491   -6.9744    9.3812 H         1 ****        0.1434 
     49 H49        11.7511   -8.9145    7.5368 H         1 ****        0.1490 
     50 H50        10.9674   -5.2719    5.4325 H         1 ****        0.1490 
     51 H51         7.5764   -3.2054   10.4452 H         1 ****        0.1010 
     52 H52         8.3671   -1.8551    9.6891 H         1 ****        0.1010 
     53 H53         7.6964   -7.5484    2.8898 H         1 ****        0.1137 
     54 H54         6.7667   -8.9922    3.0790 H         1 ****        0.1137 
     55 H55         4.0539   -5.4607    5.5871 H         1 ****        0.0933 
     56 H56         3.9666   -5.8529    7.2795 H         1 ****        0.0933 
     57 H57         6.2388   -8.4199    5.3971 H         1 ****        0.3152 
     58 H58         6.7479   -4.2368    6.0739 H         1 ****        0.3082 
     59 H59         5.5211   -1.7919    9.4346 H         1 ****        0.2721 
     60 O60         4.4371   -0.4280    7.9131 O.3       1 ****       -0.3401 
     61 C61         3.6126    0.4024    7.0874 C.3       1 ****        0.3043 
     62 C62         2.6997    1.1266    8.0893 C.3       1 ****       -0.2329 
     63 H63         2.0084    1.8036    7.5870 H         1 ****        0.0757 
     64 H64         2.1061    0.4186    8.6686 H         1 ****        0.0757 
     65 H65         3.2796    1.7151    8.8010 H         1 ****        0.0757 
     66 C66         4.4468    1.4473    6.3170 C.3       1 ****       -0.2329 
     67 H67         5.0930    2.0094    6.9911 H         1 ****        0.0757 
     68 H68         5.0889    0.9820    5.5692 H         1 ****        0.0757 
     69 H69         3.8088    2.1610    5.7961 H         1 ****        0.0757 
     70 C70         2.7433   -0.4347    6.1257 C.3       1 ****       -0.2329 
     71 H71         3.3457   -0.9429    5.3727 H         1 ****        0.0757 
     72 H72         2.1878   -1.2023    6.6646 H         1 ****        0.0757 
     73 H73         2.0219    0.1877    5.5964 H         1 ****        0.0757 
@<TRIPOS>BOND
     1    1   57 1    
     2    1   23 1    
     3    1   32 am   BACKBONE|DICT|INTERRES
     4    2   30 2    
     5    3    6 ar   
     6    3    9 ar   
     7    3   38 1    
     8    4   58 1    
     9    4   31 am   BACKBONE|DICT|INTERRES
    10    4   35 1    
    11    5   31 2    
    12    6   11 ar   
    13    6   39 1    
    14    7   59 1    
    15    7   33 am   BACKBONE|DICT|INTERRES
    16    7   34 1    
    17    8   32 2    
    18    9   13 ar   
    19    9   40 1    
    20   10   33 2    
    21   11   26 ar   
    22   11   41 1    
    23   12   28 1    
    24   12   29 1    
    25   13   26 ar   
    26   13   42 1    
    27   14   18 ar   
    28   14   25 ar   
    29   14   43 1    
    30   15   19 ar   
    31   15   25 ar   
    32   15   44 1    
    33   16   20 ar   
    34   16   27 ar   
    35   16   45 1    
    36   17   21 ar   
    37   17   27 ar   
    38   17   46 1    
    39   18   28 ar   
    40   18   47 1    
    41   19   28 ar   
    42   19   48 1    
    43   20   29 ar   
    44   20   49 1    
    45   21   29 ar   
    46   21   50 1    
    47   22   25 1    
    48   22   34 1    
    49   22   51 1    
    50   22   52 1    
    51   23   30 1    
    52   23   53 1    
    53   23   54 1    
    54   24   26 1    
    55   24   35 1    
    56   24   55 1    
    57   24   56 1    
    58   27   30 1    
    59   31   34 1    
    60   32   35 1    
    61   33   60 1    
    62   34   36 1    
    63   35   37 1    
    64   60   61 1    
    65   61   62 1    
    66   61   66 1    
    67   61   70 1    
    68   62   63 1    
    69   62   64 1    
    70   62   65 1    
    71   66   67 1    
    72   66   68 1    
    73   66   69 1    
    74   70   71 1    
    75   70   72 1    
    76   70   73 1    
@<TRIPOS>SUBSTRUCTURE
     1 ****        1 GROUP             0       ****    0 ROOT    
@<TRIPOS>MOLECULE
Cpd3-6
73   76    1
SMALL
USER_CHARGES


@<TRIPOS>ATOM
      1 N1          7.2197   -6.8803    3.9339 N.am      1 ****       -0.5647 
      2 O2          8.4907  -10.2739    4.1617 O.2       1 ****       -0.4330 
      3 C3          8.1259   -3.6145    0.7673 C.ar      1 ****       -0.1243 
      4 N4          6.5561   -5.1201    7.0243 N.am      1 ****       -0.4452 
      5 O5          6.3024   -2.9201    7.4790 O.2       1 ****       -0.5225 
      6 C6          6.8677   -3.5908    1.3555 C.ar      1 ****       -0.1226 
      7 N7          6.6218   -5.7771    9.7581 N.am      1 ****       -0.4176 
      8 O8          6.5394   -7.4814    6.0032 O.2       1 ****       -0.5368 
      9 C9          9.2601   -3.8110    1.5447 C.ar      1 ****       -0.1226 
     10 O10         5.9445   -5.4548   11.9558 O.2       1 ****       -0.5642 
     11 C11         6.7305   -3.7812    2.7241 C.ar      1 ****       -0.1294 
     12 O12        12.1176   -6.0734    7.3815 O.3       1 ****       -0.2996 
     13 C13         9.1443   -4.0040    2.9149 C.ar      1 ****       -0.1294 
     14 C14         9.6813   -3.5046    8.2761 C.ar      1 ****       -0.1108 
     15 C15         9.7546   -5.1823   10.0204 C.ar      1 ****       -0.1108 
     16 C16        10.2541   -7.1457    4.4251 C.ar      1 ****       -0.0749 
     17 C17        10.1050   -8.8592    6.1291 C.ar      1 ****       -0.0749 
     18 C18        10.7500   -4.1242    7.6365 C.ar      1 ****       -0.1418 
     19 C19        10.8218   -5.8025    9.3763 C.ar      1 ****       -0.1418 
     20 C20        11.1421   -6.4319    5.2258 C.ar      1 ****       -0.1542 
     21 C21        10.9863   -8.1370    6.9288 C.ar      1 ****       -0.1542 
     22 C22         7.8083   -3.5528    9.9765 C.3       1 ****       -0.1028 
     23 C23         7.5189   -8.2287    3.3834 C.3       1 ****       -0.0069 
     24 C24         7.7459   -4.1953    5.0306 C.3       1 ****       -0.1149 
     25 C25         9.1391   -4.0750    9.4307 C.ar      1 ****       -0.0971 
     26 C26         7.8698   -4.0330    3.5205 C.ar      1 ****       -0.1031 
     27 C27         9.6760   -8.3293    4.9050 C.ar      1 ****       -0.2013 
     28 C28        11.2712   -5.3117    8.1506 C.ar      1 ****        0.1147 
     29 C29        11.4567   -6.8964    6.5011 C.ar      1 ****        0.1464 
     30 C30         8.6120   -9.0477    4.1307 C.2       1 ****        0.5368 
     31 C31         6.4596   -4.0782    7.8647 C.2       1 ****        0.5075 
     32 C32         6.7815   -6.6050    5.1715 C.2       1 ****        0.5016 
     33 C33         6.3274   -6.1817   11.0424 C.2       1 ****        0.6168 
     34 C34         6.5790   -4.3390    9.3968 C.3       1 ****        0.0391 
     35 C35         6.6075   -5.1205    5.5641 C.3       1 ****        0.0389 
     36 H36         5.6615   -3.9108    9.8092 H         1 ****        0.1059 
     37 H37         5.6367   -4.7787    5.2049 H         1 ****        0.0923 
     38 H38         8.2242   -3.4580   -0.2979 H         1 ****        0.1340 
     39 H39         5.9929   -3.4099    0.7468 H         1 ****        0.1359 
     40 H40        10.2370   -3.8001    1.0817 H         1 ****        0.1359 
     41 H41         5.7452   -3.7315    3.1658 H         1 ****        0.1369 
     42 H42        10.0375   -4.1310    3.5092 H         1 ****        0.1369 
     43 H43         9.2194   -2.6382    7.8230 H         1 ****        0.1420 
     44 H44         9.3555   -5.6139   10.9273 H         1 ****        0.1420 
     45 H45         9.9791   -6.7406    3.4612 H         1 ****        0.1474 
     46 H46         9.7001   -9.7916    6.5011 H         1 ****        0.1474 
     47 H47        11.1150   -3.7404    6.6967 H         1 ****        0.1434 
     48 H48        11.2441   -6.7120    9.7756 H         1 ****        0.1434 
     49 H49        11.5358   -5.4830    4.8969 H         1 ****        0.1490 
     50 H50        11.2495   -8.4989    7.9108 H         1 ****        0.1490 
     51 H51         7.8168   -3.6134   11.0663 H         1 ****        0.1010 
     52 H52         7.7174   -2.4863    9.7591 H         1 ****        0.1010 
     53 H53         7.8198   -8.1503    2.3392 H         1 ****        0.1137 
     54 H54         6.5970   -8.8140    3.4033 H         1 ****        0.1137 
     55 H55         8.6937   -4.5693    5.4210 H         1 ****        0.0933 
     56 H56         7.6446   -3.1856    5.4264 H         1 ****        0.0933 
     57 H57         7.3733   -6.0774    3.3307 H         1 ****        0.3152 
     58 H58         6.6085   -6.0676    7.3791 H         1 ****        0.3082 
     59 H59         7.1083   -6.4365    9.1741 H         1 ****        0.2721 
     60 O60         6.5508   -7.5065   11.1281 O.3       1 ****       -0.3401 
     61 C61         6.3496   -8.2957   12.3066 C.3       1 ****        0.3043 
     62 C62         7.2802   -7.8518   13.4547 C.3       1 ****       -0.2329 
     63 H63         7.2214   -8.5354   14.3016 H         1 ****        0.0757 
     64 H64         8.3194   -7.8166   13.1281 H         1 ****        0.0757 
     65 H65         7.0243   -6.8586   13.8233 H         1 ****        0.0757 
     66 C66         4.8725   -8.2876   12.7529 C.3       1 ****       -0.2329 
     67 H67         4.5604   -7.3045   13.1054 H         1 ****        0.0757 
     68 H68         4.2114   -8.5587   11.9297 H         1 ****        0.0757 
     69 H69         4.6976   -8.9929   13.5653 H         1 ****        0.0757 
     70 C70         6.7340   -9.7176   11.8683 C.3       1 ****       -0.2329 
     71 H71         6.1105  -10.0596   11.0413 H         1 ****        0.0757 
     72 H72         7.7688   -9.7619   11.5272 H         1 ****        0.0757 
     73 H73         6.6236  -10.4336   12.6829 H         1 ****        0.0757 
@<TRIPOS>BOND
     1    1   57 1    
     2    1   23 1    
     3    1   32 am   BACKBONE|DICT|INTERRES
     4    2   30 2    
     5    3    6 ar   
     6    3    9 ar   
     7    3   38 1    
     8    4   58 1    
     9    4   31 am   BACKBONE|DICT|INTERRES
    10    4   35 1    
    11    5   31 2    
    12    6   11 ar   
    13    6   39 1    
    14    7   59 1    
    15    7   33 am   BACKBONE|DICT|INTERRES
    16    7   34 1    
    17    8   32 2    
    18    9   13 ar   
    19    9   40 1    
    20   10   33 2    
    21   11   26 ar   
    22   11   41 1    
    23   12   28 1    
    24   12   29 1    
    25   13   26 ar   
    26   13   42 1    
    27   14   18 ar   
    28   14   25 ar   
    29   14   43 1    
    30   15   19 ar   
    31   15   25 ar   
    32   15   44 1    
    33   16   20 ar   
    34   16   27 ar   
    35   16   45 1    
    36   17   21 ar   
    37   17   27 ar   
    38   17   46 1    
    39   18   28 ar   
    40   18   47 1    
    41   19   28 ar   
    42   19   48 1    
    43   20   29 ar   
    44   20   49 1    
    45   21   29 ar   
    46   21   50 1    
    47   22   25 1    
    48   22   34 1    
    49   22   51 1    
    50   22   52 1    
    51   23   30 1    
    52   23   53 1    
    53   23   54 1    
    54   24   26 1    
    55   24   35 1    
    56   24   55 1    
    57   24   56 1    
    58   27   30 1    
    59   31   34 1    
    60   32   35 1    
    61   33   60 1    
    62   34   36 1    
    63   35   37 1    
    64   60   61 1    
    65   61   62 1    
    66   61   66 1    
    67   61   70 1    
    68   62   63 1    
    69   62   64 1    
    70   62   65 1    
    71   66   67 1    
    72   66   68 1    
    73   66   69 1    
    74   70   71 1    
    75   70   72 1    
    76   70   73 1    
@<TRIPOS>SUBSTRUCTURE
     1 ****        1 GROUP             0       ****    0 ROOT    
@<TRIPOS>MOLECULE
Cpd3-7
73   76    1
SMALL
USER_CHARGES


@<TRIPOS>ATOM
      1 N1          7.2343   -6.8746    3.9109 N.am      1 ****       -0.5647 
      2 O2          8.4808  -10.2674    4.1777 O.2       1 ****       -0.4330 
      3 C3          8.0706   -3.5901    0.7447 C.ar      1 ****       -0.1243 
      4 N4          6.5865   -5.1408    7.0086 N.am      1 ****       -0.4452 
      5 O5          6.2693   -2.9488    7.4765 O.2       1 ****       -0.5225 
      6 C6          6.8205   -3.5533    1.3495 C.ar      1 ****       -0.1226 
      7 N7          6.7050   -5.8089    9.7698 N.am      1 ****       -0.4176 
      8 O8          6.4162   -7.4937    5.9208 O.2       1 ****       -0.5368 
      9 C9          9.2117   -3.8117    1.5052 C.ar      1 ****       -0.1226 
     10 O10         5.7104   -7.8158   10.2488 O.2       1 ****       -0.5642 
     11 C11         6.6980   -3.7542    2.7179 C.ar      1 ****       -0.1294 
     12 O12        12.1227   -6.0665    7.3864 O.3       1 ****       -0.2996 
     13 C13         9.1109   -4.0157    2.8750 C.ar      1 ****       -0.1294 
     14 C14         9.6759   -3.5106    8.2807 C.ar      1 ****       -0.1108 
     15 C15         9.8108   -5.1478   10.0610 C.ar      1 ****       -0.1108 
     16 C16        10.2663   -7.1521    4.4284 C.ar      1 ****       -0.0749 
     17 C17        10.0710   -8.8363    6.1565 C.ar      1 ****       -0.0749 
     18 C18        10.7406   -4.1278    7.6333 C.ar      1 ****       -0.1418 
     19 C19        10.8734   -5.7666    9.4069 C.ar      1 ****       -0.1418 
     20 C20        11.1560   -6.4392    5.2283 C.ar      1 ****       -0.1542 
     21 C21        10.9539   -8.1151    6.9554 C.ar      1 ****       -0.1542 
     22 C22         7.8209   -3.5727    9.9951 C.3       1 ****       -0.1028 
     23 C23         7.5347   -8.2234    3.3640 C.3       1 ****       -0.0069 
     24 C24         7.7363   -4.2046    5.0065 C.3       1 ****       -0.1149 
     25 C25         9.1633   -4.0666    9.4557 C.ar      1 ****       -0.0971 
     26 C26         7.8439   -4.0286    3.4969 C.ar      1 ****       -0.1031 
     27 C27         9.6669   -8.3213    4.9178 C.ar      1 ****       -0.2013 
     28 C28        11.2872   -5.2979    8.1601 C.ar      1 ****        0.1147 
     29 C29        11.4510   -6.8898    6.5136 C.ar      1 ****        0.1464 
     30 C30         8.6100   -9.0424    4.1359 C.2       1 ****        0.5368 
     31 C31         6.4666   -4.1047    7.8502 C.2       1 ****        0.5075 
     32 C32         6.7379   -6.6087    5.1281 C.2       1 ****        0.5016 
     33 C33         5.6111   -6.6522    9.8797 C.2       1 ****        0.6168 
     34 C34         6.6332   -4.3774    9.3759 C.3       1 ****        0.0391 
     35 C35         6.6013   -5.1289    5.5486 C.3       1 ****        0.0389 
     36 H36         5.7314   -3.9502    9.8210 H         1 ****        0.1059 
     37 H37         5.6273   -4.7690    5.2169 H         1 ****        0.0923 
     38 H38         8.1574   -3.4256   -0.3203 H         1 ****        0.1340 
     39 H39         5.9405   -3.3548    0.7537 H         1 ****        0.1359 
     40 H40        10.1824   -3.8124    1.0293 H         1 ****        0.1359 
     41 H41         5.7195   -3.6964    3.1736 H         1 ****        0.1369 
     42 H42        10.0095   -4.1633    3.4564 H         1 ****        0.1369 
     43 H43         9.1899   -2.6638    7.8155 H         1 ****        0.1420 
     44 H44         9.4428   -5.5651   10.9873 H         1 ****        0.1420 
     45 H45        10.0097   -6.7588    3.4546 H         1 ****        0.1474 
     46 H46         9.6473   -9.7565    6.5385 H         1 ****        0.1474 
     47 H47        11.0792   -3.7599    6.6772 H         1 ****        0.1434 
     48 H48        11.3189   -6.6608    9.8160 H         1 ****        0.1434 
     49 H49        11.5685   -5.5019    4.8889 H         1 ****        0.1490 
     50 H50        11.1995   -8.4659    7.9459 H         1 ****        0.1490 
     51 H51         7.8112   -3.6542   11.0833 H         1 ****        0.1010 
     52 H52         7.7137   -2.5056    9.7862 H         1 ****        0.1010 
     53 H53         7.8542   -8.1472    2.3252 H         1 ****        0.1137 
     54 H54         6.6103   -8.8051    3.3682 H         1 ****        0.1137 
     55 H55         8.6870   -4.5854    5.3830 H         1 ****        0.0933 
     56 H56         7.6423   -3.1989    5.4148 H         1 ****        0.0933 
     57 H57         7.4395   -6.0671    3.3300 H         1 ****        0.3152 
     58 H58         6.6836   -6.0812    7.3777 H         1 ****        0.3082 
     59 H59         7.6087   -6.2197    9.9378 H         1 ****        0.2721 
     60 O60         4.4611   -6.0461    9.4954 O.3       1 ****       -0.3401 
     61 C61         3.2086   -6.7111    9.3078 C.3       1 ****        0.3043 
     62 C62         3.3057   -7.8008    8.2192 C.3       1 ****       -0.2329 
     63 H63         2.3258   -8.2076    7.9706 H         1 ****        0.0757 
     64 H64         3.7449   -7.4046    7.3027 H         1 ****        0.0757 
     65 H65         3.9329   -8.6345    8.5351 H         1 ****        0.0757 
     66 C66         2.6653   -7.2877   10.6310 C.3       1 ****       -0.2329 
     67 H67         3.2802   -8.1089   10.9985 H         1 ****        0.0757 
     68 H68         2.6437   -6.5272   11.4116 H         1 ****        0.0757 
     69 H69         1.6519   -7.6706   10.5117 H         1 ****        0.0757 
     70 C70         2.2732   -5.5947    8.8182 C.3       1 ****       -0.2329 
     71 H71         2.1944   -4.7925    9.5526 H         1 ****        0.0757 
     72 H72         2.6419   -5.1467    7.8945 H         1 ****        0.0757 
     73 H73         1.2671   -5.9679    8.6263 H         1 ****        0.0757 
@<TRIPOS>BOND
     1    1   57 1    
     2    1   23 1    
     3    1   32 am   BACKBONE|DICT|INTERRES
     4    2   30 2    
     5    3    6 ar   
     6    3    9 ar   
     7    3   38 1    
     8    4   58 1    
     9    4   31 am   BACKBONE|DICT|INTERRES
    10    4   35 1    
    11    5   31 2    
    12    6   11 ar   
    13    6   39 1    
    14    7   59 1    
    15    7   33 am   BACKBONE|DICT|INTERRES
    16    7   34 1    
    17    8   32 2    
    18    9   13 ar   
    19    9   40 1    
    20   10   33 2    
    21   11   26 ar   
    22   11   41 1    
    23   12   28 1    
    24   12   29 1    
    25   13   26 ar   
    26   13   42 1    
    27   14   18 ar   
    28   14   25 ar   
    29   14   43 1    
    30   15   19 ar   
    31   15   25 ar   
    32   15   44 1    
    33   16   20 ar   
    34   16   27 ar   
    35   16   45 1    
    36   17   21 ar   
    37   17   27 ar   
    38   17   46 1    
    39   18   28 ar   
    40   18   47 1    
    41   19   28 ar   
    42   19   48 1    
    43   20   29 ar   
    44   20   49 1    
    45   21   29 ar   
    46   21   50 1    
    47   22   25 1    
    48   22   34 1    
    49   22   51 1    
    50   22   52 1    
    51   23   30 1    
    52   23   53 1    
    53   23   54 1    
    54   24   26 1    
    55   24   35 1    
    56   24   55 1    
    57   24   56 1    
    58   27   30 1    
    59   31   34 1    
    60   32   35 1    
    61   33   60 1    
    62   34   36 1    
    63   35   37 1    
    64   60   61 1    
    65   61   62 1    
    66   61   66 1    
    67   61   70 1    
    68   62   63 1    
    69   62   64 1    
    70   62   65 1    
    71   66   67 1    
    72   66   68 1    
    73   66   69 1    
    74   70   71 1    
    75   70   72 1    
    76   70   73 1    
@<TRIPOS>SUBSTRUCTURE
     1 ****        1 GROUP             0       ****    0 ROOT    
@<TRIPOS>MOLECULE
Cpd3-8
73   76    1
SMALL
USER_CHARGES


@<TRIPOS>ATOM
      1 N1          6.7372   -8.1895    5.2654 N.am      1 ****       -0.5647 
      2 O2          9.0610   -8.6066    2.5080 O.2       1 ****       -0.4330 
      3 C3          3.0388  -10.4883    6.3614 C.ar      1 ****       -0.1243 
      4 N4          6.4669   -4.9831    6.9436 N.am      1 ****       -0.4452 
      5 O5          5.8756   -4.7690    9.1179 O.2       1 ****       -0.5225 
      6 C6          3.4633  -10.0066    7.5939 C.ar      1 ****       -0.1226 
      7 N7          5.9011   -1.9181    8.3376 N.am      1 ****       -0.4176 
      8 O8          7.1048   -6.0441    4.6206 O.2       1 ****       -0.5368 
      9 C9          3.0583   -9.6665    5.2409 C.ar      1 ****       -0.1226 
     10 O10         7.0871   -0.0574    7.6177 O.2       1 ****       -0.5642 
     11 C11         3.9040   -8.6956    7.7188 C.ar      1 ****       -0.1294 
     12 O12        12.0043   -6.5015    7.7937 O.3       1 ****       -0.2996 
     13 C13         3.4945   -8.3520    5.3444 C.ar      1 ****       -0.1294 
     14 C14        10.2016   -3.3319    8.0467 C.ar      1 ****       -0.1108 
     15 C15         9.3670   -4.8709    9.7224 C.ar      1 ****       -0.1108 
     16 C16         9.6529   -8.7066    6.0725 C.ar      1 ****       -0.0749 
     17 C17        10.7531   -7.2824    4.4525 C.ar      1 ****       -0.0749 
     18 C18        11.1836   -4.2529    7.6944 C.ar      1 ****       -0.1418 
     19 C19        10.3531   -5.7874    9.3707 C.ar      1 ****       -0.1418 
     20 C20        10.4766   -8.1996    7.0721 C.ar      1 ****       -0.1542 
     21 C21        11.5726   -6.7756    5.4573 C.ar      1 ****       -0.1542 
     22 C22         8.0654   -2.7532    9.2648 C.3       1 ****       -0.1028 
     23 C23         7.2864   -8.9080    4.0841 C.3       1 ****       -0.0069 
     24 C24         4.4794   -6.4399    6.7109 C.3       1 ****       -0.1149 
     25 C25         9.2613   -3.6658    9.0238 C.ar      1 ****       -0.0971 
     26 C26         3.8998   -7.8406    6.5964 C.ar      1 ****       -0.1031 
     27 C27         9.7378   -8.1954    4.7696 C.ar      1 ****       -0.2013 
     28 C28        11.2201   -5.5017    8.3163 C.ar      1 ****        0.1147 
     29 C29        11.3901   -7.1890    6.7751 C.ar      1 ****        0.1464 
     30 C30         8.7652   -8.6049    3.7049 C.2       1 ****        0.5368 
     31 C31         6.3895   -4.3053    8.0974 C.2       1 ****        0.5075 
     32 C32         6.6787   -6.8596    5.4381 C.2       1 ****        0.5016 
     33 C33         6.0725   -0.5753    8.0792 C.2       1 ****        0.6168 
     34 C34         6.9985   -2.8777    8.1273 C.3       1 ****        0.0391 
     35 C35         6.0276   -6.3595    6.7375 C.3       1 ****        0.0389 
     36 H36         7.4739   -2.6794    7.1627 H         1 ****        0.1059 
     37 H37         6.4116   -6.9597    7.5648 H         1 ****        0.0923 
     38 H38         2.6956  -11.5096    6.2728 H         1 ****        0.1340 
     39 H39         3.4520  -10.6553    8.4585 H         1 ****        0.1359 
     40 H40         2.7354  -10.0524    4.2842 H         1 ****        0.1359 
     41 H41         4.2429   -8.3320    8.6796 H         1 ****        0.1369 
     42 H42         3.5231   -7.7264    4.4628 H         1 ****        0.1369 
     43 H43        10.1318   -2.3936    7.5144 H         1 ****        0.1420 
     44 H44         8.6431   -5.1312   10.4819 H         1 ****        0.1420 
     45 H45         8.9122   -9.4471    6.3396 H         1 ****        0.1474 
     46 H46        10.8606   -6.9009    3.4453 H         1 ****        0.1474 
     47 H47        11.8641   -4.0381    6.8849 H         1 ****        0.1434 
     48 H48        10.3939   -6.7521    9.8521 H         1 ****        0.1434 
     49 H49        10.3572   -8.5270    8.0933 H         1 ****        0.1490 
     50 H50        12.2933   -6.0039    5.2344 H         1 ****        0.1490 
     51 H51         7.6171   -2.9660   10.2378 H         1 ****        0.1010 
     52 H52         8.4322   -1.7278    9.3387 H         1 ****        0.1010 
     53 H53         6.6653   -8.6610    3.2207 H         1 ****        0.1137 
     54 H54         7.2072   -9.9844    4.2322 H         1 ****        0.1137 
     55 H55         4.0908   -5.8256    5.8972 H         1 ****        0.0933 
     56 H56         4.0770   -6.0049    7.6265 H         1 ****        0.0933 
     57 H57         6.2145   -8.7371    5.9389 H         1 ****        0.3152 
     58 H58         6.9376   -4.6042    6.1294 H         1 ****        0.3082 
     59 H59         5.0652   -2.2117    8.8180 H         1 ****        0.2721 
     60 O60         4.9415    0.0698    8.4224 O.3       1 ****       -0.3401 
     61 C61         4.7341    1.4816    8.2980 C.3       1 ****        0.3043 
     62 C62         4.8090    1.9409    6.8267 C.3       1 ****       -0.2329 
     63 H63         4.5189    2.9861    6.7203 H         1 ****        0.0757 
     64 H64         5.8161    1.8420    6.4218 H         1 ****        0.0757 
     65 H65         4.1485    1.3468    6.1951 H         1 ****        0.0757 
     66 C66         3.3030    1.6901    8.8179 C.3       1 ****       -0.2329 
     67 H67         2.5807    1.1232    8.2295 H         1 ****        0.0757 
     68 H68         3.2042    1.3577    9.8518 H         1 ****        0.0757 
     69 H69         3.0098    2.7394    8.7789 H         1 ****        0.0757 
     70 C70         5.7140    2.2819    9.1814 C.3       1 ****       -0.2329 
     71 H71         5.6923    1.9290   10.2124 H         1 ****        0.0757 
     72 H72         6.7423    2.1906    8.8317 H         1 ****        0.0757 
     73 H73         5.4679    3.3436    9.1884 H         1 ****        0.0757 
@<TRIPOS>BOND
     1    1   57 1    
     2    1   23 1    
     3    1   32 am   BACKBONE|DICT|INTERRES
     4    2   30 2    
     5    3    6 ar   
     6    3    9 ar   
     7    3   38 1    
     8    4   58 1    
     9    4   31 am   BACKBONE|DICT|INTERRES
    10    4   35 1    
    11    5   31 2    
    12    6   11 ar   
    13    6   39 1    
    14    7   59 1    
    15    7   33 am   BACKBONE|DICT|INTERRES
    16    7   34 1    
    17    8   32 2    
    18    9   13 ar   
    19    9   40 1    
    20   10   33 2    
    21   11   26 ar   
    22   11   41 1    
    23   12   28 1    
    24   12   29 1    
    25   13   26 ar   
    26   13   42 1    
    27   14   18 ar   
    28   14   25 ar   
    29   14   43 1    
    30   15   19 ar   
    31   15   25 ar   
    32   15   44 1    
    33   16   20 ar   
    34   16   27 ar   
    35   16   45 1    
    36   17   21 ar   
    37   17   27 ar   
    38   17   46 1    
    39   18   28 ar   
    40   18   47 1    
    41   19   28 ar   
    42   19   48 1    
    43   20   29 ar   
    44   20   49 1    
    45   21   29 ar   
    46   21   50 1    
    47   22   25 1    
    48   22   34 1    
    49   22   51 1    
    50   22   52 1    
    51   23   30 1    
    52   23   53 1    
    53   23   54 1    
    54   24   26 1    
    55   24   35 1    
    56   24   55 1    
    57   24   56 1    
    58   27   30 1    
    59   31   34 1    
    60   32   35 1    
    61   33   60 1    
    62   34   36 1    
    63   35   37 1    
    64   60   61 1    
    65   61   62 1    
    66   61   66 1    
    67   61   70 1    
    68   62   63 1    
    69   62   64 1    
    70   62   65 1    
    71   66   67 1    
    72   66   68 1    
    73   66   69 1    
    74   70   71 1    
    75   70   72 1    
    76   70   73 1    
@<TRIPOS>SUBSTRUCTURE
     1 ****        1 GROUP             0       ****    0 ROOT    
@<TRIPOS>MOLECULE
Cpd3-9
73   76    1
SMALL
USER_CHARGES


@<TRIPOS>ATOM
      1 N1          6.7667   -7.7626    4.8377 N.am      1 ****       -0.5647 
      2 O2          8.7616  -10.3030    3.7932 O.2       1 ****       -0.4330 
      3 C3          2.9249  -10.0534    5.4111 C.ar      1 ****       -0.1243 
      4 N4          6.4568   -4.7890    6.8912 N.am      1 ****       -0.4452 
      5 O5          5.7625   -4.8306    9.0442 O.2       1 ****       -0.5225 
      6 C6          3.2729   -9.7395    6.7194 C.ar      1 ****       -0.1226 
      7 N7          5.9100   -1.9050    8.6527 N.am      1 ****       -0.4176 
      8 O8          7.2354   -5.5694    4.5116 O.2       1 ****       -0.5368 
      9 C9          3.0487   -9.1041    4.4038 C.ar      1 ****       -0.1226 
     10 O10         5.1746    0.2489    8.9254 O.2       1 ****       -0.5642 
     11 C11         3.7406   -8.4703    7.0339 C.ar      1 ****       -0.1294 
     12 O12        12.0715   -6.3046    7.5687 O.3       1 ****       -0.2996 
     13 C13         3.5138   -7.8287    4.6972 C.ar      1 ****       -0.1294 
     14 C14        10.2536   -3.2495    8.4180 C.ar      1 ****       -0.1108 
     15 C15         9.2541   -5.1289    9.5768 C.ar      1 ****       -0.1108 
     16 C16        10.0401   -7.0325    4.6126 C.ar      1 ****       -0.0749 
     17 C17        10.4411   -9.0830    5.8361 C.ar      1 ****       -0.0749 
     18 C18        11.2679   -4.0808    7.9478 C.ar      1 ****       -0.1418 
     19 C19        10.2651   -5.9564    9.1021 C.ar      1 ****       -0.1418 
     20 C20        10.8823   -6.3536    5.4821 C.ar      1 ****       -0.1542 
     21 C21        11.2798   -8.3939    6.7114 C.ar      1 ****       -0.1542 
     22 C22         8.0075   -2.9364    9.5412 C.3       1 ****       -0.1028 
     23 C23         7.4399   -8.3131    3.6371 C.3       1 ****       -0.0069 
     24 C24         4.4520   -6.1330    6.3517 C.3       1 ****       -0.1149 
     25 C25         9.2205   -3.7878    9.1900 C.ar      1 ****       -0.0971 
     26 C26         3.8419   -7.4868    6.0272 C.ar      1 ****       -0.1031 
     27 C27         9.7564   -8.3867    4.8291 C.ar      1 ****       -0.2013 
     28 C28        11.2375   -5.4434    8.2420 C.ar      1 ****        0.1147 
     29 C29        11.4492   -7.0184    6.5705 C.ar      1 ****        0.1464 
     30 C30         8.7345   -9.0867    3.9898 C.2       1 ****        0.5368 
     31 C31         6.3384   -4.2590    8.1164 C.2       1 ****        0.5075 
     32 C32         6.7241   -6.4682    5.1819 C.2       1 ****        0.5016 
     33 C33         6.0630   -0.5294    8.5992 C.2       1 ****        0.6168 
     34 C34         6.9887   -2.8694    8.3563 C.3       1 ****        0.0391 
     35 C35         5.9958   -6.1143    6.4887 C.3       1 ****        0.0389 
     36 H36         7.5089   -2.5719    7.4422 H         1 ****        0.1059 
     37 H37         6.3049   -6.8266    7.2564 H         1 ****        0.0923 
     38 H38         2.5614  -11.0436    5.1746 H         1 ****        0.1340 
     39 H39         3.1823  -10.4871    7.4949 H         1 ****        0.1359 
     40 H40         2.7859   -9.3604    3.3872 H         1 ****        0.1359 
     41 H41         4.0212   -8.2384    8.0525 H         1 ****        0.1369 
     42 H42         3.6247   -7.1037    3.9027 H         1 ****        0.1369 
     43 H43        10.2393   -2.2084    8.1290 H         1 ****        0.1420 
     44 H44         8.4587   -5.5490   10.1770 H         1 ****        0.1420 
     45 H45         9.5640   -6.4692    3.8214 H         1 ****        0.1474 
     46 H46        10.2715  -10.1405    5.9926 H         1 ****        0.1474 
     47 H47        12.0307   -3.6943    7.2889 H         1 ****        0.1434 
     48 H48        10.2511   -7.0124    9.3253 H         1 ****        0.1434 
     49 H49        11.0300   -5.2911    5.3646 H         1 ****        0.1490 
     50 H50        11.7408   -8.9042    7.5435 H         1 ****        0.1490 
     51 H51         7.5276   -3.3156   10.4466 H         1 ****        0.1010 
     52 H52         8.3604   -1.9395    9.8094 H         1 ****        0.1010 
     53 H53         7.6952   -7.5401    2.9100 H         1 ****        0.1137 
     54 H54         6.7590   -8.9778    3.1036 H         1 ****        0.1137 
     55 H55         4.1381   -5.4110    5.5963 H         1 ****        0.0933 
     56 H56         4.0011   -5.7970    7.2863 H         1 ****        0.0933 
     57 H57         6.2323   -8.4057    5.4106 H         1 ****        0.3152 
     58 H58         6.9781   -4.3270    6.1550 H         1 ****        0.3082 
     59 H59         5.0464   -2.2526    9.0400 H         1 ****        0.2721 
     60 O60         7.2910   -0.1686    8.1418 O.3       1 ****       -0.3401 
     61 C61         7.7444    1.1792    7.9826 C.3       1 ****        0.3043 
     62 C62         6.9011    1.9430    6.9411 C.3       1 ****       -0.2329 
     63 H63         7.3281    2.9219    6.7234 H         1 ****        0.0757 
     64 H64         6.8394    1.3913    6.0031 H         1 ****        0.0757 
     65 H65         5.8801    2.1053    7.2864 H         1 ****        0.0757 
     66 C66         7.7824    1.9295    9.3300 C.3       1 ****       -0.2329 
     67 H67         8.3412    1.3675   10.0784 H         1 ****        0.0757 
     68 H68         8.2539    2.9070    9.2284 H         1 ****        0.0757 
     69 H69         6.7824    2.0934    9.7312 H         1 ****        0.0757 
     70 C70         9.1787    1.0212    7.4539 C.3       1 ****       -0.2329 
     71 H71         9.8031    0.4710    8.1584 H         1 ****        0.0757 
     72 H72         9.1962    0.4719    6.5120 H         1 ****        0.0757 
     73 H73         9.6510    1.9883    7.2801 H         1 ****        0.0757 
@<TRIPOS>BOND
     1    1   57 1    
     2    1   23 1    
     3    1   32 am   BACKBONE|DICT|INTERRES
     4    2   30 2    
     5    3    6 ar   
     6    3    9 ar   
     7    3   38 1    
     8    4   58 1    
     9    4   31 am   BACKBONE|DICT|INTERRES
    10    4   35 1    
    11    5   31 2    
    12    6   11 ar   
    13    6   39 1    
    14    7   59 1    
    15    7   33 am   BACKBONE|DICT|INTERRES
    16    7   34 1    
    17    8   32 2    
    18    9   13 ar   
    19    9   40 1    
    20   10   33 2    
    21   11   26 ar   
    22   11   41 1    
    23   12   28 1    
    24   12   29 1    
    25   13   26 ar   
    26   13   42 1    
    27   14   18 ar   
    28   14   25 ar   
    29   14   43 1    
    30   15   19 ar   
    31   15   25 ar   
    32   15   44 1    
    33   16   20 ar   
    34   16   27 ar   
    35   16   45 1    
    36   17   21 ar   
    37   17   27 ar   
    38   17   46 1    
    39   18   28 ar   
    40   18   47 1    
    41   19   28 ar   
    42   19   48 1    
    43   20   29 ar   
    44   20   49 1    
    45   21   29 ar   
    46   21   50 1    
    47   22   25 1    
    48   22   34 1    
    49   22   51 1    
    50   22   52 1    
    51   23   30 1    
    52   23   53 1    
    53   23   54 1    
    54   24   26 1    
    55   24   35 1    
    56   24   55 1    
    57   24   56 1    
    58   27   30 1    
    59   31   34 1    
    60   32   35 1    
    61   33   60 1    
    62   34   36 1    
    63   35   37 1    
    64   60   61 1    
    65   61   62 1    
    66   61   66 1    
    67   61   70 1    
    68   62   63 1    
    69   62   64 1    
    70   62   65 1    
    71   66   67 1    
    72   66   68 1    
    73   66   69 1    
    74   70   71 1    
    75   70   72 1    
    76   70   73 1    
@<TRIPOS>SUBSTRUCTURE
     1 ****        1 GROUP             0       ****    0 ROOT    
@<TRIPOS>MOLECULE
Cpd3-10-MRC
73   76    1
SMALL
USER_CHARGES


@<TRIPOS>ATOM
      1 N1          6.6818   -7.7119    4.8027 N.am      1 ****       -0.5647 
      2 O2          8.7064  -10.3066    3.9844 O.2       1 ****       -0.4330 
      3 C3          1.5080   -4.6011    8.8405 C.ar      1 ****       -0.1243 
      4 N4          6.1411   -4.6930    6.7040 N.am      1 ****       -0.4452 
      5 O5          6.3495   -5.3047    8.8782 O.2       1 ****       -0.5225 
      6 C6          1.7987   -5.9472    8.6523 C.ar      1 ****       -0.1226 
      7 N7          5.9716   -2.0387    8.4381 N.am      1 ****       -0.4176 
      8 O8          7.0404   -5.5383    4.2813 O.2       1 ****       -0.5368 
      9 C9          2.0681   -3.6393    8.0088 C.ar      1 ****       -0.1226 
     10 O10         5.8328   -1.5904    6.1650 O.2       1 ****       -0.5642 
     11 C11         2.6435   -6.3452    7.6238 C.ar      1 ****       -0.1294 
     12 O12        12.1359   -6.2560    7.5892 O.3       1 ****       -0.2996 
     13 C13         2.9116   -4.0177    6.9727 C.ar      1 ****       -0.1294 
     14 C14        10.2932   -3.2265    8.4460 C.ar      1 ****       -0.1108 
     15 C15         9.3907   -5.0997    9.6902 C.ar      1 ****       -0.1108 
     16 C16         9.9492   -6.9882    4.7380 C.ar      1 ****       -0.0749 
     17 C17        10.4469   -9.0411    5.9187 C.ar      1 ****       -0.0749 
     18 C18        11.3239   -4.0373    7.9762 C.ar      1 ****       -0.1418 
     19 C19        10.4172   -5.9074    9.2156 C.ar      1 ****       -0.1418 
     20 C20        10.8223   -6.3031    5.5728 C.ar      1 ****       -0.1542 
     21 C21        11.3149   -8.3457    6.7602 C.ar      1 ****       -0.1542 
     22 C22         8.0165   -2.9894    9.5286 C.3       1 ****       -0.1028 
     23 C23         7.4222   -8.3169    3.6681 C.3       1 ****       -0.0069 
     24 C24         4.1918   -5.7917    5.6829 C.3       1 ****       -0.1149 
     25 C25         9.2896   -3.7798    9.2466 C.ar      1 ****       -0.0971 
     26 C26         3.1863   -5.3827    6.7462 C.ar      1 ****       -0.1031 
     27 C27         9.7091   -8.3531    4.9430 C.ar      1 ****       -0.2013 
     28 C28        11.3370   -5.3931    8.3012 C.ar      1 ****        0.1147 
     29 C29        11.4604   -6.9676    6.6223 C.ar      1 ****        0.1464 
     30 C30         8.6899   -9.0816    4.1212 C.2       1 ****        0.5368 
     31 C31         6.4732   -4.4666    7.9831 C.2       1 ****        0.5075 
     32 C32         6.5390   -6.3944    5.0087 C.2       1 ****        0.5016 
     33 C33         5.4731   -1.3944    7.3242 C.2       1 ****        0.6168 
     34 C34         7.0358   -3.0547    8.3170 C.3       1 ****        0.0391 
     35 C35         5.6450   -5.9645    6.1794 C.3       1 ****        0.0389 
     36 H36         7.6654   -2.7885    7.4624 H         1 ****        0.1059 
     37 H37         5.6783   -6.7348    6.9524 H         1 ****        0.0923 
     38 H38         0.8556   -4.3003    9.6477 H         1 ****        0.1340 
     39 H39         1.3762   -6.6870    9.3170 H         1 ****        0.1359 
     40 H40         1.8570   -2.5930    8.1755 H         1 ****        0.1359 
     41 H41         2.8824   -7.3919    7.5036 H         1 ****        0.1369 
     42 H42         3.3648   -3.2649    6.3437 H         1 ****        0.1369 
     43 H43        10.2298   -2.2007    8.1127 H         1 ****        0.1420 
     44 H44         8.6165   -5.5338   10.3076 H         1 ****        0.1420 
     45 H45         9.4308   -6.4236    3.9749 H         1 ****        0.1474 
     46 H46        10.3086  -10.1036    6.0716 H         1 ****        0.1474 
     47 H47        12.0486   -3.6485    7.2770 H         1 ****        0.1434 
     48 H48        10.4352   -6.9582    9.4615 H         1 ****        0.1434 
     49 H49        10.9450   -5.2374    5.4569 H         1 ****        0.1490 
     50 H50        11.8248   -8.8562    7.5631 H         1 ****        0.1490 
     51 H51         7.5312   -3.3621   10.4330 H         1 ****        0.1010 
     52 H52         8.2914   -1.9564    9.7476 H         1 ****        0.1010 
     53 H53         7.7269   -7.5814    2.9210 H         1 ****        0.1137 
     54 H54         6.7700   -9.0009    3.1231 H         1 ****        0.1137 
     55 H55         3.8488   -6.7304    5.2453 H         1 ****        0.0933 
     56 H56         4.1615   -5.0647    4.8690 H         1 ****        0.0933 
     57 H57         6.2226   -8.3422    5.4461 H         1 ****        0.3152 
     58 H58         6.3003   -3.9732    6.0096 H         1 ****        0.3082 
     59 H59         5.4853   -1.9157    9.3106 H         1 ****        0.2721 
     60 O60         4.5205   -0.5299    7.7212 O.3       1 ****       -0.3401 
     61 C61         3.8395    0.3897    6.8590 C.3       1 ****        0.3043 
     62 C62         2.9954   -0.3352    5.7904 C.3       1 ****       -0.2329 
     63 H63         2.4061    0.3705    5.2049 H         1 ****        0.0757 
     64 H64         3.6165   -0.8938    5.0904 H         1 ****        0.0757 
     65 H65         2.3034   -1.0426    6.2454 H         1 ****        0.0757 
     66 C66         2.9015    1.1538    7.8066 C.3       1 ****       -0.2329 
     67 H67         2.2062    0.4788    8.3066 H         1 ****        0.0757 
     68 H68         3.4610    1.6712    8.5867 H         1 ****        0.0757 
     69 H69         2.3118    1.8998    7.2735 H         1 ****        0.0757 
     70 C70         4.8190    1.3877    6.2064 C.3       1 ****       -0.2329 
     71 H71         5.4442    1.8732    6.9558 H         1 ****        0.0757 
     72 H72         5.4871    0.8955    5.4995 H         1 ****        0.0757 
     73 H73         4.2887    2.1680    5.6607 H         1 ****        0.0757 
@<TRIPOS>BOND
     1    1   57 1    
     2    1   23 1    
     3    1   32 am   BACKBONE|DICT|INTERRES
     4    2   30 2    
     5    3    6 ar   
     6    3    9 ar   
     7    3   38 1    
     8    4   58 1    
     9    4   31 am   BACKBONE|DICT|INTERRES
    10    4   35 1    
    11    5   31 2    
    12    6   11 ar   
    13    6   39 1    
    14    7   59 1    
    15    7   33 am   BACKBONE|DICT|INTERRES
    16    7   34 1    
    17    8   32 2    
    18    9   13 ar   
    19    9   40 1    
    20   10   33 2    
    21   11   26 ar   
    22   11   41 1    
    23   12   28 1    
    24   12   29 1    
    25   13   26 ar   
    26   13   42 1    
    27   14   18 ar   
    28   14   25 ar   
    29   14   43 1    
    30   15   19 ar   
    31   15   25 ar   
    32   15   44 1    
    33   16   20 ar   
    34   16   27 ar   
    35   16   45 1    
    36   17   21 ar   
    37   17   27 ar   
    38   17   46 1    
    39   18   28 ar   
    40   18   47 1    
    41   19   28 ar   
    42   19   48 1    
    43   20   29 ar   
    44   20   49 1    
    45   21   29 ar   
    46   21   50 1    
    47   22   25 1    
    48   22   34 1    
    49   22   51 1    
    50   22   52 1    
    51   23   30 1    
    52   23   53 1    
    53   23   54 1    
    54   24   26 1    
    55   24   35 1    
    56   24   55 1    
    57   24   56 1    
    58   27   30 1    
    59   31   34 1    
    60   32   35 1    
    61   33   60 1    
    62   34   36 1    
    63   35   37 1    
    64   60   61 1    
    65   61   62 1    
    66   61   66 1    
    67   61   70 1    
    68   62   63 1    
    69   62   64 1    
    70   62   65 1    
    71   66   67 1    
    72   66   68 1    
    73   66   69 1    
    74   70   71 1    
    75   70   72 1    
    76   70   73 1    
@<TRIPOS>SUBSTRUCTURE
     1 ****        1 GROUP             0       ****    0 ROOT    
