@<TRIPOS>MOLECULE
Cpd3-500-MEC
93   94    1
SMALL
USER_CHARGES


@<TRIPOS>ATOM
      1 C1         30.5300   30.5000   32.7850 C.3       1 UNK         0.0000 
      2 H2         30.9960   29.6270   33.2590 H         1 UNK         0.0000 
      3 H3         31.2270   31.1130   32.2010 H         1 UNK         0.0000 
      4 H4         30.3100   31.1730   33.6220 H         1 UNK         0.0000 
      5 C5         29.1850   30.2530   32.0140 C.3       1 UNK         0.0000 
      6 C6         28.5740   31.5750   31.5300 C.3       1 UNK         0.0000 
      7 H7         29.1690   32.0680   30.7510 H         1 UNK         0.0000 
      8 H8         27.5640   31.4100   31.1360 H         1 UNK         0.0000 
      9 H9         28.5130   32.2850   32.3640 H         1 UNK         0.0000 
     10 C10        28.1330   29.4980   32.9080 C.3       1 UNK         0.0000 
     11 H11        28.5370   28.4800   32.9560 H         1 UNK         0.0000 
     12 H12        28.1390   30.0040   33.8810 H         1 UNK         0.0000 
     13 H13        27.1630   29.4830   32.3950 H         1 UNK         0.0000 
     14 O14        29.5630   29.4220   30.9280 O.3       1 UNK         0.0000 
     15 C15        28.6220   29.1630   29.9250 C.2       1 UNK         0.0000 
     16 O16        27.4080   29.3260   29.9340 O.2       1 UNK         0.0000 
     17 N17        29.2850   28.6440   28.9160 N.am      1 UNK         0.0000 
     18 H18        30.2490   28.4300   29.1420 H         1 UNK         0.0000 
     19 C19        28.6220   28.0670   27.6970 C.3       1 UNK         0.0000 
     20 C20        27.5170   27.0610   27.9790 C.2       1 UNK         0.0000 
     21 N21        26.2670   27.4650   27.7640 N.am      1 UNK         0.0000 
     22 H22        26.0480   28.3670   27.3570 H         1 UNK         0.0000 
     23 O23        27.8140   25.9200   28.3500 O.2       1 UNK         0.0000 
     24 H24        28.2030   28.9500   27.2000 H         1 UNK         0.0000 
     25 C25        29.7010   27.6490   26.7090 C.3       1 UNK         0.0000 
     26 H26        30.2070   26.7590   27.1030 H         1 UNK         0.0000 
     27 H27        30.4860   28.3970   26.5410 H         1 UNK         0.0000 
     28 C28        29.1370   27.3090   25.3310 C.ar      1 UNK         0.0000 
     29 C29        28.6330   26.0050   25.0020 C.ar      1 UNK         0.0000 
     30 C30        27.8770   25.9340   23.8520 C.ar      1 UNK         0.0000 
     31 H31        27.3830   25.0030   23.5920 H         1 UNK         0.0000 
     32 H32        28.7300   25.0950   25.5880 H         1 UNK         0.0000 
     33 C33        29.0140   28.3800   24.3930 C.ar      1 UNK         0.0000 
     34 H34        29.5790   29.2760   24.6320 H         1 UNK         0.0000 
     35 C35        28.1820   28.2920   23.2370 C.ar      1 UNK         0.0000 
     36 H36        28.1750   29.1270   22.5430 H         1 UNK         0.0000 
     37 C37        27.5410   27.0770   23.0630 C.ar      1 UNK         0.0000 
     38 O38        26.5900   26.9010   22.0690 O.3       1 UNK         0.0000 
     39 C39        25.3120   26.7760   22.5740 C.ar      1 UNK         0.0000 
     40 C40        24.7690   27.8050   23.3320 C.ar      1 UNK         0.0000 
     41 C41        23.6700   27.5250   24.1790 C.ar      1 UNK         0.0000 
     42 H42        23.2590   28.2590   24.8660 H         1 UNK         0.0000 
     43 H43        25.2840   28.7580   23.4130 H         1 UNK         0.0000 
     44 C44        24.7850   25.4970   22.5380 C.ar      1 UNK         0.0000 
     45 H45        25.1580   24.7130   21.8850 H         1 UNK         0.0000 
     46 C46        23.5630   25.2610   23.2700 C.ar      1 UNK         0.0000 
     47 H47        23.1160   24.2730   23.2100 H         1 UNK         0.0000 
     48 C48        23.0260   26.2690   24.0870 C.ar      1 UNK         0.0000 
     49 C49        21.8020   26.0800   24.9220 C.2       1 UNK         0.0000 
     50 O50        20.9670   25.2380   24.5220 O.2       1 UNK         0.0000 
     51 C51        21.7010   26.6180   26.3200 C.3       1 UNK         0.0000 
     52 H52        21.5540   27.7000   26.2070 H         1 UNK         0.0000 
     53 H53        20.8550   26.0900   26.7770 H         1 UNK         0.0000 
     54 N54        22.9620   26.3040   27.0590 N.am      1 UNK         0.0000 
     55 H55        23.2840   25.3620   27.2470 H         1 UNK         0.0000 
     56 C56        23.8410   27.3120   27.5620 C.2       1 UNK         0.0000 
     57 O57        23.6990   28.5080   27.4250 O.2       1 UNK         0.0000 
     58 C58        25.1370   26.6960   28.2340 C.3       1 UNK         0.0000 
     59 H59        25.1820   25.6470   27.9200 H         1 UNK         0.0000 
     60 C60        25.0000   26.7410   29.8180 C.3       1 UNK         0.0000 
     61 H61        25.0220   27.7820   30.1630 H         1 UNK         0.0000 
     62 H62        25.9120   26.3190   30.2580 H         1 UNK         0.0000 
     63 C63        23.6630   26.0970   30.2150 C.ar      1 UNK         0.0000 
     64 C64        23.4450   24.6990   30.2530 C.ar      1 UNK         0.0000 
     65 H65        24.2380   23.9830   30.0570 H         1 UNK         0.0000 
     66 C66        22.1900   24.2220   30.5380 C.ar      1 UNK         0.0000 
     67 H67        22.0210   23.1500   30.5690 H         1 UNK         0.0000 
     68 C68        21.2180   25.0610   30.9500 C.ar      1 UNK         0.0000 
     69 H69        20.2080   24.7690   31.2220 H         1 UNK         0.0000 
     70 C70        21.4190   26.4690   30.9650 C.ar      1 UNK         0.0000 
     71 H71        20.5070   26.9990   31.2200 H         1 UNK         0.0000 
     72 C72        22.6270   27.0420   30.5980 C.ar      1 UNK         0.0000 
     73 H73        22.7460   28.1180   30.5080 H         1 UNK         0.0000 
     74 C74        26.4720   23.1600   27.4440 C.3       1 UNK         0.0000 
     75 H75        27.3900   22.6270   27.1660 H         1 UNK         0.0000 
     76 H76        26.4250   23.3430   28.5240 H         1 UNK         0.0000 
     77 H77        26.4510   24.1810   27.0440 H         1 UNK         0.0000 
     78 S78        24.9370   22.4180   26.9110 S.3       1 UNK         0.0000 
     79 C79        25.3510   22.4630   25.1110 C.3       1 UNK         0.0000 
     80 H80        26.3520   22.0630   24.9060 H         1 UNK         0.0000 
     81 H81        25.2430   23.5080   24.7960 H         1 UNK         0.0000 
     82 H82        24.5170   22.0590   24.5240 H         1 UNK         0.0000 
     83 O83        23.8130   23.4190   27.0020 O.2       1 UNK         0.0000 
     84 C84        32.6470   29.3440   29.9010 C.3       1 UNK         0.0000 
     85 H85        33.3960   29.7570   30.5880 H         1 UNK         0.0000 
     86 H86        31.6680   29.8170   30.0460 H         1 UNK         0.0000 
     87 H87        32.9350   29.5430   28.8620 H         1 UNK         0.0000 
     88 S88        32.4630   27.5400   30.1660 S.3       1 UNK         0.0000 
     89 C89        34.1690   27.3030   29.7230 C.3       1 UNK         0.0000 
     90 H90        34.3680   26.2250   29.6700 H         1 UNK         0.0000 
     91 H91        34.7460   27.6580   30.5860 H         1 UNK         0.0000 
     92 H92        34.3190   27.8460   28.7820 H         1 UNK         0.0000 
     93 O93        31.7610   26.9700   28.9330 O.2       1 UNK         0.0000 
@<TRIPOS>BOND
     1    1    2 1    
     2    1    4 1    
     3    1    3 1    
     4    1    5 1    
     5    5   10 1    
     6    5    6 1    
     7    5   14 1    
     8    6    9 1    
     9    6    7 1    
    10    6    8 1    
    11   10   11 1    
    12   10   12 1    
    13   10   13 1    
    14   14   15 1    
    15   15   16 2    
    16   15   17 am   BACKBONE|DICT|INTERRES
    17   17   18 1    
    18   17   19 1    
    19   19   24 1    
    20   19   20 1    
    21   19   25 1    
    22   20   23 2    
    23   20   21 am   BACKBONE|DICT|INTERRES
    24   21   58 1    
    25   21   22 1    
    26   25   26 1    
    27   25   27 1    
    28   25   28 1    
    29   28   29 ar   
    30   28   33 ar   
    31   29   32 1    
    32   29   30 ar   
    33   30   31 1    
    34   30   37 ar   
    35   33   34 1    
    36   33   35 ar   
    37   35   36 1    
    38   35   37 ar   
    39   37   38 1    
    40   38   39 1    
    41   39   40 ar   
    42   39   44 ar   
    43   40   43 1    
    44   40   41 ar   
    45   41   42 1    
    46   41   48 ar   
    47   44   46 ar   
    48   44   45 1    
    49   46   48 ar   
    50   46   47 1    
    51   48   49 1    
    52   49   51 1    
    53   49   50 2    
    54   51   53 1    
    55   51   54 1    
    56   51   52 1    
    57   54   55 1    
    58   54   56 am   BACKBONE|DICT|INTERRES
    59   56   58 1    
    60   56   57 2    
    61   58   59 1    
    62   58   60 1    
    63   60   61 1    
    64   60   63 1    
    65   60   62 1    
    66   63   64 ar   
    67   63   72 ar   
    68   64   66 ar   
    69   64   65 1    
    70   66   67 1    
    71   66   68 ar   
    72   68   70 ar   
    73   68   69 1    
    74   70   71 1    
    75   70   72 ar   
    76   72   73 1    
    77   74   76 1    
    78   74   75 1    
    79   74   77 1    
    80   74   78 1    
    81   78   83 2    
    82   78   79 1    
    83   79   80 1    
    84   79   81 1    
    85   79   82 1    
    86   84   86 1    
    87   84   88 1    
    88   84   85 1    
    89   84   87 1    
    90   88   89 1    
    91   88   93 2    
    92   89   91 1    
    93   89   90 1    
    94   89   92 1    
@<TRIPOS>SUBSTRUCTURE
     1 UNK         1 GROUP             0       ****    0 ROOT    
@<TRIPOS>MOLECULE
Cpd3-1000
93   94    1
SMALL
USER_CHARGES


@<TRIPOS>ATOM
      1 C1         27.8063   33.6028   30.5037 C.3       1 UNK         0.0000 
      2 H2         27.0588   33.1352   31.1562 H         1 UNK         0.0000 
      3 H3         28.7837   33.3739   30.9467 H         1 UNK         0.0000 
      4 H4         27.7696   34.6976   30.4610 H         1 UNK         0.0000 
      5 C5         27.8435   33.0616   28.9938 C.3       1 UNK         0.0000 
      6 C6         28.8094   33.9322   28.1277 C.3       1 UNK         0.0000 
      7 H7         28.7859   34.9967   28.3919 H         1 UNK         0.0000 
      8 H8         29.8560   33.6227   28.2372 H         1 UNK         0.0000 
      9 H9         28.6366   33.8520   27.0474 H         1 UNK         0.0000 
     10 C10        26.4335   33.1053   28.4913 C.3       1 UNK         0.0000 
     11 H11        26.3375   32.9675   27.4083 H         1 UNK         0.0000 
     12 H12        25.7717   32.4634   29.0854 H         1 UNK         0.0000 
     13 H13        26.0614   34.1161   28.6969 H         1 UNK         0.0000 
     14 O14        28.2732   31.7181   29.0306 O.3       1 UNK         0.0000 
     15 C15        28.3359   31.0674   27.8150 C.2       1 UNK         0.0000 
     16 O16        27.9953   31.4517   26.7309 O.2       1 UNK         0.0000 
     17 N17        28.1283   29.7498   28.1385 N.am      1 UNK         0.0000 
     18 H18        28.0711   29.4950   29.1169 H         1 UNK         0.0000 
     19 C19        27.9004   28.5841   27.2009 C.3       1 UNK         0.0000 
     20 C20        27.2119   27.3357   27.8492 C.2       1 UNK         0.0000 
     21 N21        25.8642   27.4377   28.0791 N.am      1 UNK         0.0000 
     22 H22        25.4169   28.3065   27.8112 H         1 UNK         0.0000 
     23 O23        27.8441   26.3295   28.1483 O.2       1 UNK         0.0000 
     24 H24        27.1956   28.8978   26.4209 H         1 UNK         0.0000 
     25 C25        29.2315   28.1465   26.5141 C.3       1 UNK         0.0000 
     26 H26        29.7373   27.3952   27.1325 H         1 UNK         0.0000 
     27 H27        29.8165   29.0587   26.3517 H         1 UNK         0.0000 
     28 C28        28.8466   27.6110   25.1871 C.ar      1 UNK         0.0000 
     29 C29        28.7441   26.1974   25.0092 C.ar      1 UNK         0.0000 
     30 C30        28.2821   25.7202   23.7464 C.ar      1 UNK         0.0000 
     31 H31        28.1141   24.6579   23.5933 H         1 UNK         0.0000 
     32 H32        29.0548   25.4880   25.7693 H         1 UNK         0.0000 
     33 C33        28.5726   28.4758   24.1613 C.ar      1 UNK         0.0000 
     34 H34        28.8714   29.5082   24.3214 H         1 UNK         0.0000 
     35 C35        27.9414   28.0038   23.0042 C.ar      1 UNK         0.0000 
     36 H36        27.6269   28.7578   22.2892 H         1 UNK         0.0000 
     37 C37        27.7744   26.6259   22.8291 C.ar      1 UNK         0.0000 
     38 O38        26.7835   26.3100   21.9504 O.3       1 UNK         0.0000 
     39 C39        25.5570   26.3466   22.5307 C.ar      1 UNK         0.0000 
     40 C40        24.8122   27.4944   22.3061 C.ar      1 UNK         0.0000 
     41 C41        23.6240   27.6823   23.0620 C.ar      1 UNK         0.0000 
     42 H42        22.9916   28.5474   22.8855 H         1 UNK         0.0000 
     43 H43        25.0993   28.3053   21.6425 H         1 UNK         0.0000 
     44 C44        25.1308   25.3205   23.3696 C.ar      1 UNK         0.0000 
     45 H45        25.8013   24.4835   23.5436 H         1 UNK         0.0000 
     46 C46        23.9609   25.4488   24.1501 C.ar      1 UNK         0.0000 
     47 H47        23.6843   24.6939   24.8810 H         1 UNK         0.0000 
     48 C48        23.2481   26.7153   24.0449 C.ar      1 UNK         0.0000 
     49 C49        22.1285   27.1645   24.9987 C.2       1 UNK         0.0000 
     50 O50        21.3942   28.0911   24.6446 O.2       1 UNK         0.0000 
     51 C51        22.0147   26.5024   26.3499 C.3       1 UNK         0.0000 
     52 H52        21.1349   26.7334   26.9620 H         1 UNK         0.0000 
     53 H53        22.0695   25.4192   26.1859 H         1 UNK         0.0000 
     54 N54        23.2321   26.8804   27.1036 N.am      1 UNK         0.0000 
     55 H55        23.6658   27.7896   26.9945 H         1 UNK         0.0000 
     56 C56        23.7622   26.0506   28.0615 C.2       1 UNK         0.0000 
     57 O57        23.1986   24.9876   28.3545 O.2       1 UNK         0.0000 
     58 C58        25.0688   26.4868   28.8146 C.3       1 UNK         0.0000 
     59 H59        25.5973   25.5535   29.0457 H         1 UNK         0.0000 
     60 C60        24.6827   27.1583   30.1451 C.3       1 UNK         0.0000 
     61 H61        24.0938   26.4865   30.7824 H         1 UNK         0.0000 
     62 H62        24.0716   28.0331   29.8928 H         1 UNK         0.0000 
     63 C63        25.8891   27.7321   30.9002 C.ar      1 UNK         0.0000 
     64 C64        26.2685   29.0780   30.8098 C.ar      1 UNK         0.0000 
     65 H65        25.8690   29.7280   30.0377 H         1 UNK         0.0000 
     66 C66        27.4191   29.4070   31.5273 C.ar      1 UNK         0.0000 
     67 H67        27.8571   30.3901   31.3872 H         1 UNK         0.0000 
     68 C68        27.9422   28.6521   32.5988 C.ar      1 UNK         0.0000 
     69 H69        28.7253   28.9909   33.2697 H         1 UNK         0.0000 
     70 C70        27.4168   27.3266   32.7438 C.ar      1 UNK         0.0000 
     71 H71        27.6966   26.7165   33.5972 H         1 UNK         0.0000 
     72 C72        26.4146   26.8822   31.8944 C.ar      1 UNK         0.0000 
     73 H73        25.9235   25.9565   32.1786 H         1 UNK         0.0000 
     74 C74        29.1396   30.3212   61.9020 C.3       1 UNK         0.0000 
     75 H75        29.0678   31.2800   61.3737 H         1 UNK         0.0000 
     76 H76        28.2523   30.0197   62.4729 H         1 UNK         0.0000 
     77 H77        29.3333   29.6143   61.0857 H         1 UNK         0.0000 
     78 S78        30.6120   30.1956   63.0147 S.3       1 UNK         0.0000 
     79 C79        30.2541   28.5356   63.6592 C.3       1 UNK         0.0000 
     80 H80        30.3479   27.7858   62.8639 H         1 UNK         0.0000 
     81 H81        29.2323   28.5892   64.0551 H         1 UNK         0.0000 
     82 H82        31.0979   28.3152   64.3242 H         1 UNK         0.0000 
     83 O83        30.4237   31.1613   64.1751 O.2       1 UNK         0.0000 
     84 C84        29.0129    9.8053   13.8057 C.3       1 UNK         0.0000 
     85 H85        30.0565   10.0000   14.0801 H         1 UNK         0.0000 
     86 H86        29.0764    9.5315   12.7453 H         1 UNK         0.0000 
     87 H87        28.6200    9.0215   14.4638 H         1 UNK         0.0000 
     88 S88        28.2076   11.4297   14.1014 S.3       1 UNK         0.0000 
     89 C89        29.0863   12.5707   13.0137 C.3       1 UNK         0.0000 
     90 H90        30.1567   12.5170   13.2485 H         1 UNK         0.0000 
     91 H91        28.7295   13.5791   13.2571 H         1 UNK         0.0000 
     92 H92        28.8137   12.2546   11.9994 H         1 UNK         0.0000 
     93 O93        28.6219   11.8821   15.4863 O.2       1 UNK         0.0000 
@<TRIPOS>BOND
     1    1    2 1    
     2    1    4 1    
     3    1    3 1    
     4    1    5 1    
     5    5    6 1    
     6    5   10 1    
     7    5   14 1    
     8    6    8 1    
     9    6    7 1    
    10    6    9 1    
    11   10   12 1    
    12   10   13 1    
    13   10   11 1    
    14   14   15 1    
    15   15   16 2    
    16   15   17 am   BACKBONE|DICT|INTERRES
    17   17   18 1    
    18   17   19 1    
    19   19   24 1    
    20   19   20 1    
    21   19   25 1    
    22   20   21 am   BACKBONE|DICT|INTERRES
    23   20   23 2    
    24   21   58 1    
    25   21   22 1    
    26   25   27 1    
    27   25   26 1    
    28   25   28 1    
    29   28   29 ar   
    30   28   33 ar   
    31   29   32 1    
    32   29   30 ar   
    33   30   31 1    
    34   30   37 ar   
    35   33   34 1    
    36   33   35 ar   
    37   35   36 1    
    38   35   37 ar   
    39   37   38 1    
    40   38   39 1    
    41   39   40 ar   
    42   39   44 ar   
    43   40   41 ar   
    44   40   43 1    
    45   41   42 1    
    46   41   48 ar   
    47   44   45 1    
    48   44   46 ar   
    49   46   48 ar   
    50   46   47 1    
    51   48   49 1    
    52   49   51 1    
    53   49   50 2    
    54   51   52 1    
    55   51   54 1    
    56   51   53 1    
    57   54   55 1    
    58   54   56 am   BACKBONE|DICT|INTERRES
    59   56   58 1    
    60   56   57 2    
    61   58   59 1    
    62   58   60 1    
    63   60   61 1    
    64   60   63 1    
    65   60   62 1    
    66   63   64 ar   
    67   63   72 ar   
    68   64   66 ar   
    69   64   65 1    
    70   66   67 1    
    71   66   68 ar   
    72   68   69 1    
    73   68   70 ar   
    74   70   71 1    
    75   70   72 ar   
    76   72   73 1    
    77   74   76 1    
    78   74   78 1    
    79   74   75 1    
    80   74   77 1    
    81   78   83 2    
    82   78   79 1    
    83   79   81 1    
    84   79   82 1    
    85   79   80 1    
    86   84   87 1    
    87   84   85 1    
    88   84   88 1    
    89   84   86 1    
    90   88   93 2    
    91   88   89 1    
    92   89   90 1    
    93   89   91 1    
    94   89   92 1    
@<TRIPOS>SUBSTRUCTURE
     1 UNK         1 GROUP             0       ****    0 ROOT    
@<TRIPOS>MOLECULE
Cpd3-1500
83   85    1
SMALL
USER_CHARGES


@<TRIPOS>ATOM
      1 C1         30.2265   29.3916   33.2709 C.3       1 UNK         0.0000 
      2 H2         31.0147   28.6397   33.1478 H         1 UNK         0.0000 
      3 H3         30.4465   29.9935   34.1609 H         1 UNK         0.0000 
      4 H4         29.3509   28.7763   33.5117 H         1 UNK         0.0000 
      5 C5         30.0397   30.2224   32.0614 C.3       1 UNK         0.0000 
      6 C6         31.1805   31.1960   31.8072 C.3       1 UNK         0.0000 
      7 H7         31.1259   31.6091   30.7925 H         1 UNK         0.0000 
      8 H8         31.1139   32.0791   32.4545 H         1 UNK         0.0000 
      9 H9         32.1393   30.6660   31.8452 H         1 UNK         0.0000 
     10 C10        28.7089   30.9133   32.1264 C.3       1 UNK         0.0000 
     11 H11        28.5931   31.5101   33.0388 H         1 UNK         0.0000 
     12 H12        28.4903   31.6234   31.3188 H         1 UNK         0.0000 
     13 H13        27.8204   30.2787   32.2311 H         1 UNK         0.0000 
     14 O14        29.9619   29.1642   31.0498 O.3       1 UNK         0.0000 
     15 C15        29.6156   29.4335   29.8144 C.2       1 UNK         0.0000 
     16 O16        29.2153   30.5431   29.4208 O.2       1 UNK         0.0000 
     17 N17        29.5453   28.2908   29.0571 N.am      1 UNK         0.0000 
     18 H18        29.8046   27.4715   29.5934 H         1 UNK         0.0000 
     19 C19        28.7699   28.1523   27.7777 C.3       1 UNK         0.0000 
     20 C20        27.6959   27.0324   27.8539 C.2       1 UNK         0.0000 
     21 N21        26.3951   27.4544   27.7916 N.am      1 UNK         0.0000 
     22 H22        26.2236   28.4261   27.5622 H         1 UNK         0.0000 
     23 O23        27.9164   25.8491   28.0286 O.2       1 UNK         0.0000 
     24 H24        28.2123   29.0805   27.6076 H         1 UNK         0.0000 
     25 C25        29.7708   27.8934   26.6307 C.3       1 UNK         0.0000 
     26 H26        30.4144   27.0504   26.9129 H         1 UNK         0.0000 
     27 H27        30.4725   28.7037   26.3987 H         1 UNK         0.0000 
     28 C28        29.0934   27.4806   25.3630 C.ar      1 UNK         0.0000 
     29 C29        28.8169   26.1059   25.0705 C.ar      1 UNK         0.0000 
     30 C30        28.1032   25.8228   23.8713 C.ar      1 UNK         0.0000 
     31 H31        27.6428   24.8499   23.7247 H         1 UNK         0.0000 
     32 H32        29.0953   25.2963   25.7392 H         1 UNK         0.0000 
     33 C33        28.5685   28.5207   24.5451 C.ar      1 UNK         0.0000 
     34 H34        28.6143   29.5850   24.7562 H         1 UNK         0.0000 
     35 C35        27.8988   28.2205   23.3948 C.ar      1 UNK         0.0000 
     36 H36        27.5280   28.9389   22.6709 H         1 UNK         0.0000 
     37 C37        27.6077   26.9049   23.0750 C.ar      1 UNK         0.0000 
     38 O38        26.6528   26.7409   22.1276 O.3       1 UNK         0.0000 
     39 C39        25.4311   26.6470   22.7498 C.ar      1 UNK         0.0000 
     40 C40        24.8008   27.7521   23.3881 C.ar      1 UNK         0.0000 
     41 C41        23.6027   27.6168   24.0589 C.ar      1 UNK         0.0000 
     42 H42        23.1420   28.5094   24.4712 H         1 UNK         0.0000 
     43 H43        25.3450   28.6767   23.2167 H         1 UNK         0.0000 
     44 C44        24.8678   25.3583   22.9066 C.ar      1 UNK         0.0000 
     45 H45        25.2911   24.5330   22.3411 H         1 UNK         0.0000 
     46 C46        23.6027   25.2204   23.5614 C.ar      1 UNK         0.0000 
     47 H47        23.0442   24.2897   23.5529 H         1 UNK         0.0000 
     48 C48        22.9606   26.3499   24.1679 C.ar      1 UNK         0.0000 
     49 C49        21.6635   26.2255   24.8731 C.2       1 UNK         0.0000 
     50 O50        20.7006   25.7626   24.3043 O.2       1 UNK         0.0000 
     51 C51        21.6289   26.6810   26.3115 C.3       1 UNK         0.0000 
     52 H52        21.6386   27.7782   26.3094 H         1 UNK         0.0000 
     53 H53        20.7869   26.3827   26.9469 H         1 UNK         0.0000 
     54 N54        22.8975   26.2460   26.9733 N.am      1 UNK         0.0000 
     55 H55        23.1634   25.2683   26.9507 H         1 UNK         0.0000 
     56 C56        23.8432   27.1245   27.3861 C.2       1 UNK         0.0000 
     57 O57        23.6540   28.2955   27.3875 O.2       1 UNK         0.0000 
     58 C58        25.1862   26.4911   27.8717 C.3       1 UNK         0.0000 
     59 H59        25.4212   25.6630   27.1927 H         1 UNK         0.0000 
     60 C60        25.1063   25.9846   29.3668 C.3       1 UNK         0.0000 
     61 H61        25.9428   25.3021   29.5628 H         1 UNK         0.0000 
     62 H62        24.2941   25.2561   29.4779 H         1 UNK         0.0000 
     63 C63        24.8161   26.9984   30.4125 C.ar      1 UNK         0.0000 
     64 C64        25.8886   27.2607   31.2195 C.ar      1 UNK         0.0000 
     65 H65        26.8224   26.7132   31.1438 H         1 UNK         0.0000 
     66 C66        25.7651   28.1532   32.2652 C.ar      1 UNK         0.0000 
     67 H67        26.6198   28.3564   32.9042 H         1 UNK         0.0000 
     68 C68        24.6026   28.8129   32.5861 C.ar      1 UNK         0.0000 
     69 H69        24.6625   29.6391   33.2892 H         1 UNK         0.0000 
     70 C70        23.4828   28.5454   31.7593 C.ar      1 UNK         0.0000 
     71 H71        22.5544   29.1066   31.7885 H         1 UNK         0.0000 
     72 C72        23.6164   27.6748   30.6819 C.ar      1 UNK         0.0000 
     73 H73        22.7661   27.4841   30.0340 H         1 UNK         0.0000 
     74 C74        21.5545   22.5778   27.8468 C.3       1 UNK         0.0000 
     75 H75        22.4695   22.5478   28.4515 H         1 UNK         0.0000 
     76 H76        21.0233   21.6285   27.9923 H         1 UNK         0.0000 
     77 H77        20.9080   23.4338   28.0762 H         1 UNK         0.0000 
     78 S78        21.9378   22.9042   26.1629 S.3       1 UNK         0.0000 
     79 C79        22.3245   21.1328   25.8649 C.3       1 UNK         0.0000 
     80 H80        22.6342   21.2267   24.8159 H         1 UNK         0.0000 
     81 H81        21.4181   20.5480   26.0661 H         1 UNK         0.0000 
     82 H82        23.1387   20.7358   26.4829 H         1 UNK         0.0000 
     83 O83        23.2425   23.5981   26.3076 O.2       1 UNK         0.0000 
@<TRIPOS>BOND
     1    1    4 1    
     2    1    3 1    
     3    1    2 1    
     4    1    5 1    
     5    5   10 1    
     6    5    6 1    
     7    5   14 1    
     8    6    9 1    
     9    6    8 1    
    10    6    7 1    
    11   10   11 1    
    12   10   12 1    
    13   10   13 1    
    14   14   15 1    
    15   15   16 2    
    16   15   17 am   BACKBONE|DICT|INTERRES
    17   17   18 1    
    18   17   19 1    
    19   19   24 1    
    20   19   20 1    
    21   19   25 1    
    22   20   23 2    
    23   20   21 am   BACKBONE|DICT|INTERRES
    24   21   22 1    
    25   21   58 1    
    26   25   26 1    
    27   25   27 1    
    28   25   28 1    
    29   28   29 ar   
    30   28   33 ar   
    31   29   32 1    
    32   29   30 ar   
    33   30   31 1    
    34   30   37 ar   
    35   33   34 1    
    36   33   35 ar   
    37   35   36 1    
    38   35   37 ar   
    39   37   38 1    
    40   38   39 1    
    41   39   40 ar   
    42   39   44 ar   
    43   40   41 ar   
    44   40   43 1    
    45   41   42 1    
    46   41   48 ar   
    47   44   46 ar   
    48   44   45 1    
    49   46   48 ar   
    50   46   47 1    
    51   48   49 1    
    52   49   51 1    
    53   49   50 2    
    54   51   52 1    
    55   51   53 1    
    56   51   54 1    
    57   54   56 am   BACKBONE|DICT|INTERRES
    58   54   55 1    
    59   56   57 2    
    60   56   58 1    
    61   58   59 1    
    62   58   60 1    
    63   60   61 1    
    64   60   63 1    
    65   60   62 1    
    66   63   72 ar   
    67   63   64 ar   
    68   64   66 ar   
    69   64   65 1    
    70   66   68 ar   
    71   66   67 1    
    72   68   69 1    
    73   68   70 ar   
    74   70   71 1    
    75   70   72 ar   
    76   72   73 1    
    77   74   77 1    
    78   74   75 1    
    79   74   76 1    
    80   74   78 1    
    81   78   83 2    
    82   78   79 1    
    83   79   81 1    
    84   79   82 1    
    85   79   80 1    
@<TRIPOS>SUBSTRUCTURE
     1 UNK         1 GROUP             0       ****    0 ROOT    
@<TRIPOS>MOLECULE
Cpd3-2000
83   85    1
SMALL
USER_CHARGES


@<TRIPOS>ATOM
      1 C1         29.9977   31.2083   32.3219 C.3       1 UNK         0.0000 
      2 H2         30.9556   31.2090   31.7855 H         1 UNK         0.0000 
      3 H3         29.9773   32.0975   32.9631 H         1 UNK         0.0000 
      4 H4         29.8035   30.3753   33.0082 H         1 UNK         0.0000 
      5 C5         28.8362   31.3202   31.3031 C.3       1 UNK         0.0000 
      6 C6         28.9441   32.6346   30.5724 C.3       1 UNK         0.0000 
      7 H7         28.7319   33.5336   31.1636 H         1 UNK         0.0000 
      8 H8         29.9448   32.8730   30.1919 H         1 UNK         0.0000 
      9 H9         28.2316   32.5740   29.7396 H         1 UNK         0.0000 
     10 C10        27.4764   31.2642   32.0404 C.3       1 UNK         0.0000 
     11 H11        27.4621   32.1168   32.7296 H         1 UNK         0.0000 
     12 H12        26.6735   31.4333   31.3136 H         1 UNK         0.0000 
     13 H13        27.2580   30.3747   32.6451 H         1 UNK         0.0000 
     14 O14        29.1774   30.2785   30.3939 O.3       1 UNK         0.0000 
     15 C15        28.2782   29.9469   29.4856 C.2       1 UNK         0.0000 
     16 O16        27.2470   30.4486   29.1596 O.2       1 UNK         0.0000 
     17 N17        28.9118   29.0408   28.7258 N.am      1 UNK         0.0000 
     18 H18        29.8325   28.8009   29.0742 H         1 UNK         0.0000 
     19 C19        28.4628   28.3474   27.4993 C.3       1 UNK         0.0000 
     20 C20        27.3786   27.2495   27.8748 C.2       1 UNK         0.0000 
     21 N21        26.0654   27.5680   28.1862 N.am      1 UNK         0.0000 
     22 H22        25.8609   28.5504   28.0440 H         1 UNK         0.0000 
     23 O23        27.7431   26.0797   28.0037 O.2       1 UNK         0.0000 
     24 H24        27.8434   29.0170   26.8895 H         1 UNK         0.0000 
     25 C25        29.5989   27.8112   26.6318 C.3       1 UNK         0.0000 
     26 H26        30.1215   26.9102   26.9762 H         1 UNK         0.0000 
     27 H27        30.3056   28.6445   26.5411 H         1 UNK         0.0000 
     28 C28        29.0681   27.4043   25.2073 C.ar      1 UNK         0.0000 
     29 C29        28.7171   26.0701   25.0123 C.ar      1 UNK         0.0000 
     30 C30        28.0159   25.7903   23.8011 C.ar      1 UNK         0.0000 
     31 H31        27.6059   24.8058   23.5993 H         1 UNK         0.0000 
     32 H32        29.0250   25.2420   25.6446 H         1 UNK         0.0000 
     33 C33        28.7833   28.4155   24.2633 C.ar      1 UNK         0.0000 
     34 H34        28.9479   29.4789   24.4115 H         1 UNK         0.0000 
     35 C35        28.0798   28.1538   23.1285 C.ar      1 UNK         0.0000 
     36 H36        27.8588   28.9323   22.4037 H         1 UNK         0.0000 
     37 C37        27.6391   26.8355   22.9187 C.ar      1 UNK         0.0000 
     38 O38        26.7018   26.5590   21.9355 O.3       1 UNK         0.0000 
     39 C39        25.4258   26.5232   22.2741 C.ar      1 UNK         0.0000 
     40 C40        24.8262   27.7199   22.6149 C.ar      1 UNK         0.0000 
     41 C41        23.7753   27.7104   23.5041 C.ar      1 UNK         0.0000 
     42 H42        23.4461   28.7007   23.8050 H         1 UNK         0.0000 
     43 H43        25.3250   28.6292   22.2911 H         1 UNK         0.0000 
     44 C44        24.8543   25.3248   22.7207 C.ar      1 UNK         0.0000 
     45 H45        25.4387   24.4313   22.5253 H         1 UNK         0.0000 
     46 C46        23.6965   25.2893   23.5389 C.ar      1 UNK         0.0000 
     47 H47        23.2015   24.4163   23.9530 H         1 UNK         0.0000 
     48 C48        23.1868   26.5367   23.9232 C.ar      1 UNK         0.0000 
     49 C49        22.0971   26.5388   24.9385 C.2       1 UNK         0.0000 
     50 O50        21.1825   25.8179   24.6891 O.2       1 UNK         0.0000 
     51 C51        22.1493   27.4599   26.1703 C.3       1 UNK         0.0000 
     52 H52        22.1217   28.4558   25.7116 H         1 UNK         0.0000 
     53 H53        21.2462   27.2598   26.7607 H         1 UNK         0.0000 
     54 N54        23.3970   27.3572   26.9743 N.am      1 UNK         0.0000 
     55 H55        24.2080   27.7560   26.5188 H         1 UNK         0.0000 
     56 C56        23.6147   26.6449   28.1690 C.2       1 UNK         0.0000 
     57 O57        22.6291   26.1370   28.6977 O.2       1 UNK         0.0000 
     58 C58        25.0404   26.6048   28.7929 C.3       1 UNK         0.0000 
     59 H59        25.3599   25.6024   28.4816 H         1 UNK         0.0000 
     60 C60        24.8597   26.7004   30.3662 C.3       1 UNK         0.0000 
     61 H61        24.0959   25.9810   30.6855 H         1 UNK         0.0000 
     62 H62        24.4730   27.7070   30.5640 H         1 UNK         0.0000 
     63 C63        26.1818   26.4894   31.2093 C.ar      1 UNK         0.0000 
     64 C64        26.8608   25.2847   31.0576 C.ar      1 UNK         0.0000 
     65 H65        26.5478   24.6217   30.2566 H         1 UNK         0.0000 
     66 C66        28.0209   25.0945   31.7991 C.ar      1 UNK         0.0000 
     67 H67        28.6702   24.2435   31.6165 H         1 UNK         0.0000 
     68 C68        28.5608   26.0680   32.6868 C.ar      1 UNK         0.0000 
     69 H69        29.4727   25.8787   33.2457 H         1 UNK         0.0000 
     70 C70        27.8346   27.2626   32.8004 C.ar      1 UNK         0.0000 
     71 H71        28.2039   28.0297   33.4758 H         1 UNK         0.0000 
     72 C72        26.6968   27.4684   32.0571 C.ar      1 UNK         0.0000 
     73 H73        26.1225   28.3769   32.2103 H         1 UNK         0.0000 
     74 C74        26.5857   31.1317   24.5811 C.3       1 UNK         0.0000 
     75 H75        26.7500   32.1439   24.1936 H         1 UNK         0.0000 
     76 H76        26.5782   30.5160   23.6732 H         1 UNK         0.0000 
     77 H77        27.2632   30.7352   25.3474 H         1 UNK         0.0000 
     78 S78        24.8962   30.9818   25.2201 S.3       1 UNK         0.0000 
     79 C79        25.1018   32.3905   26.2294 C.3       1 UNK         0.0000 
     80 H80        25.4617   33.3153   25.7603 H         1 UNK         0.0000 
     81 H81        25.7222   32.1133   27.0906 H         1 UNK         0.0000 
     82 H82        24.0874   32.5693   26.6046 H         1 UNK         0.0000 
     83 O83        25.0053   29.7982   26.0977 O.2       1 UNK         0.0000 
@<TRIPOS>BOND
     1    1    4 1    
     2    1    3 1    
     3    1    2 1    
     4    1    5 1    
     5    5   10 1    
     6    5    6 1    
     7    5   14 1    
     8    6    7 1    
     9    6    8 1    
    10    6    9 1    
    11   10   13 1    
    12   10   11 1    
    13   10   12 1    
    14   14   15 1    
    15   15   16 2    
    16   15   17 am   BACKBONE|DICT|INTERRES
    17   17   18 1    
    18   17   19 1    
    19   19   24 1    
    20   19   20 1    
    21   19   25 1    
    22   20   21 am   BACKBONE|DICT|INTERRES
    23   20   23 2    
    24   21   58 1    
    25   21   22 1    
    26   25   27 1    
    27   25   26 1    
    28   25   28 1    
    29   28   29 ar   
    30   28   33 ar   
    31   29   32 1    
    32   29   30 ar   
    33   30   31 1    
    34   30   37 ar   
    35   33   34 1    
    36   33   35 ar   
    37   35   36 1    
    38   35   37 ar   
    39   37   38 1    
    40   38   39 1    
    41   39   44 ar   
    42   39   40 ar   
    43   40   41 ar   
    44   40   43 1    
    45   41   48 ar   
    46   41   42 1    
    47   44   46 ar   
    48   44   45 1    
    49   46   47 1    
    50   46   48 ar   
    51   48   49 1    
    52   49   51 1    
    53   49   50 2    
    54   51   53 1    
    55   51   54 1    
    56   51   52 1    
    57   54   56 am   BACKBONE|DICT|INTERRES
    58   54   55 1    
    59   56   57 2    
    60   56   58 1    
    61   58   59 1    
    62   58   60 1    
    63   60   61 1    
    64   60   62 1    
    65   60   63 1    
    66   63   72 ar   
    67   63   64 ar   
    68   64   66 ar   
    69   64   65 1    
    70   66   68 ar   
    71   66   67 1    
    72   68   70 ar   
    73   68   69 1    
    74   70   71 1    
    75   70   72 ar   
    76   72   73 1    
    77   74   78 1    
    78   74   77 1    
    79   74   75 1    
    80   74   76 1    
    81   78   83 2    
    82   78   79 1    
    83   79   82 1    
    84   79   81 1    
    85   79   80 1    
@<TRIPOS>SUBSTRUCTURE
     1 UNK         1 GROUP             0       ****    0 ROOT    
@<TRIPOS>MOLECULE
Cpd3-2500
93   94    1
SMALL
USER_CHARGES


@<TRIPOS>ATOM
      1 C1         28.8574   33.7636   30.1687 C.3       1 UNK         0.0000 
      2 H2         27.8715   33.7180   30.6474 H         1 UNK         0.0000 
      3 H3         29.5233   33.3205   30.9186 H         1 UNK         0.0000 
      4 H4         29.1566   34.8183   30.1448 H         1 UNK         0.0000 
      5 C5         28.8641   33.1353   28.7503 C.3       1 UNK         0.0000 
      6 C6         30.3361   33.2264   28.2409 C.3       1 UNK         0.0000 
      7 H7         30.5002   32.8131   27.2382 H         1 UNK         0.0000 
      8 H8         30.6970   34.2458   28.0556 H         1 UNK         0.0000 
      9 H9         31.1198   32.7913   28.8726 H         1 UNK         0.0000 
     10 C10        27.8898   33.8608   27.8337 C.3       1 UNK         0.0000 
     11 H11        28.1412   34.9222   27.9563 H         1 UNK         0.0000 
     12 H12        27.9906   33.5213   26.7957 H         1 UNK         0.0000 
     13 H13        26.8671   33.5854   28.1159 H         1 UNK         0.0000 
     14 O14        28.4991   31.7019   28.9382 O.3       1 UNK         0.0000 
     15 C15        28.4375   30.8331   27.9288 C.2       1 UNK         0.0000 
     16 O16        28.4602   31.1488   26.7514 O.2       1 UNK         0.0000 
     17 N17        28.3067   29.5766   28.3348 N.am      1 UNK         0.0000 
     18 H18        28.2463   29.4634   29.3396 H         1 UNK         0.0000 
     19 C19        28.1178   28.4245   27.4063 C.3       1 UNK         0.0000 
     20 C20        27.4163   27.1799   27.9423 C.2       1 UNK         0.0000 
     21 N21        26.0212   27.3188   27.8826 N.am      1 UNK         0.0000 
     22 H22        25.5639   28.1479   27.5235 H         1 UNK         0.0000 
     23 O23        27.9763   26.2385   28.4660 O.2       1 UNK         0.0000 
     24 H24        27.3715   28.8305   26.7126 H         1 UNK         0.0000 
     25 C25        29.3698   28.1490   26.4742 C.3       1 UNK         0.0000 
     26 H26        30.0111   27.4055   26.9653 H         1 UNK         0.0000 
     27 H27        29.9403   29.0844   26.5234 H         1 UNK         0.0000 
     28 C28        28.9448   27.6399   25.1222 C.ar      1 UNK         0.0000 
     29 C29        28.8898   26.2467   24.9022 C.ar      1 UNK         0.0000 
     30 C30        28.2805   25.7740   23.7306 C.ar      1 UNK         0.0000 
     31 H31        28.1245   24.7106   23.5720 H         1 UNK         0.0000 
     32 H32        29.0253   25.5607   25.7333 H         1 UNK         0.0000 
     33 C33        28.5514   28.5130   24.1751 C.ar      1 UNK         0.0000 
     34 H34        28.5609   29.5792   24.3815 H         1 UNK         0.0000 
     35 C35        27.9772   28.0286   23.0335 C.ar      1 UNK         0.0000 
     36 H36        27.5271   28.7637   22.3730 H         1 UNK         0.0000 
     37 C37        27.7541   26.6400   22.8007 C.ar      1 UNK         0.0000 
     38 O38        26.8045   26.3117   21.9235 O.3       1 UNK         0.0000 
     39 C39        25.5378   26.3673   22.4841 C.ar      1 UNK         0.0000 
     40 C40        24.6386   27.3323   22.0983 C.ar      1 UNK         0.0000 
     41 C41        23.4361   27.5134   22.8381 C.ar      1 UNK         0.0000 
     42 H42        22.8038   28.3627   22.5978 H         1 UNK         0.0000 
     43 H43        24.8511   28.0210   21.2853 H         1 UNK         0.0000 
     44 C44        25.1984   25.4442   23.5432 C.ar      1 UNK         0.0000 
     45 H45        25.8722   24.6013   23.6644 H         1 UNK         0.0000 
     46 C46        23.9925   25.6185   24.2732 C.ar      1 UNK         0.0000 
     47 H47        23.7295   24.9523   25.0899 H         1 UNK         0.0000 
     48 C48        23.1600   26.6794   23.9795 C.ar      1 UNK         0.0000 
     49 C49        22.0105   27.0357   24.8927 C.2       1 UNK         0.0000 
     50 O50        21.1875   27.7662   24.4298 O.2       1 UNK         0.0000 
     51 C51        21.9899   26.6616   26.3808 C.3       1 UNK         0.0000 
     52 H52        21.2516   27.2966   26.8838 H         1 UNK         0.0000 
     53 H53        21.5889   25.6415   26.4298 H         1 UNK         0.0000 
     54 N54        23.2691   26.9107   27.0546 N.am      1 UNK         0.0000 
     55 H55        23.9591   27.5861   26.7498 H         1 UNK         0.0000 
     56 C56        23.6132   26.2422   28.2011 C.2       1 UNK         0.0000 
     57 O57        22.9315   25.3693   28.6161 O.2       1 UNK         0.0000 
     58 C58        25.0602   26.5439   28.8191 C.3       1 UNK         0.0000 
     59 H59        25.3702   25.5370   29.1258 H         1 UNK         0.0000 
     60 C60        24.9684   27.4543   30.1023 C.3       1 UNK         0.0000 
     61 H61        26.0139   27.4278   30.4326 H         1 UNK         0.0000 
     62 H62        24.4687   26.9208   30.9203 H         1 UNK         0.0000 
     63 C63        24.3565   28.8607   29.9360 C.ar      1 UNK         0.0000 
     64 C64        25.0131   29.9764   29.6680 C.ar      1 UNK         0.0000 
     65 H65        26.0959   29.9270   29.7422 H         1 UNK         0.0000 
     66 C66        24.4226   31.2168   29.5232 C.ar      1 UNK         0.0000 
     67 H67        25.0130   32.1265   29.4649 H         1 UNK         0.0000 
     68 C68        23.0866   31.3831   29.7459 C.ar      1 UNK         0.0000 
     69 H69        22.5885   32.3477   29.7556 H         1 UNK         0.0000 
     70 C70        22.3100   30.2613   30.0289 C.ar      1 UNK         0.0000 
     71 H71        21.2436   30.3295   30.2206 H         1 UNK         0.0000 
     72 C72        22.9278   28.9661   29.9982 C.ar      1 UNK         0.0000 
     73 H73        22.3139   28.0895   30.1819 H         1 UNK         0.0000 
     74 C74        25.2735   31.6156   25.5365 C.3       1 UNK         0.0000 
     75 H75        26.3185   31.4666   25.2387 H         1 UNK         0.0000 
     76 H76        25.1949   31.8265   26.6100 H         1 UNK         0.0000 
     77 H77        24.8195   32.4117   24.9331 H         1 UNK         0.0000 
     78 S78        24.4076   30.0861   25.2327 S.3       1 UNK         0.0000 
     79 C79        22.7606   30.5855   25.8465 C.3       1 UNK         0.0000 
     80 H80        22.6033   31.6198   25.5181 H         1 UNK         0.0000 
     81 H81        22.9637   30.5821   26.9245 H         1 UNK         0.0000 
     82 H82        21.9523   29.9135   25.5312 H         1 UNK         0.0000 
     83 O83        25.0611   29.0993   26.1803 O.2       1 UNK         0.0000 
     84 C84        28.3493   28.4646   33.8364 C.3       1 UNK         0.0000 
     85 H85        29.2597   27.8565   33.9058 H         1 UNK         0.0000 
     86 H86        27.4870   27.8850   33.4849 H         1 UNK         0.0000 
     87 H87        28.2248   29.1739   34.6633 H         1 UNK         0.0000 
     88 S88        28.7938   29.4884   32.3379 S.3       1 UNK         0.0000 
     89 C89        27.3698   30.5493   32.4130 C.3       1 UNK         0.0000 
     90 H90        26.4691   30.0203   32.0808 H         1 UNK         0.0000 
     91 H91        27.6703   31.3239   31.6960 H         1 UNK         0.0000 
     92 H92        27.3438   31.0119   33.4072 H         1 UNK         0.0000 
     93 O93        28.5983   28.4943   31.2168 O.2       1 UNK         0.0000 
@<TRIPOS>BOND
     1    1    2 1    
     2    1    3 1    
     3    1    4 1    
     4    1    5 1    
     5    5    6 1    
     6    5   10 1    
     7    5   14 1    
     8    6    9 1    
     9    6    8 1    
    10    6    7 1    
    11   10   13 1    
    12   10   11 1    
    13   10   12 1    
    14   14   15 1    
    15   15   16 2    
    16   15   17 am   BACKBONE|DICT|INTERRES
    17   17   18 1    
    18   17   19 1    
    19   19   24 1    
    20   19   20 1    
    21   19   25 1    
    22   20   21 am   BACKBONE|DICT|INTERRES
    23   20   23 2    
    24   21   22 1    
    25   21   58 1    
    26   25   26 1    
    27   25   27 1    
    28   25   28 1    
    29   28   29 ar   
    30   28   33 ar   
    31   29   32 1    
    32   29   30 ar   
    33   30   31 1    
    34   30   37 ar   
    35   33   34 1    
    36   33   35 ar   
    37   35   36 1    
    38   35   37 ar   
    39   37   38 1    
    40   38   39 1    
    41   39   40 ar   
    42   39   44 ar   
    43   40   41 ar   
    44   40   43 1    
    45   41   42 1    
    46   41   48 ar   
    47   44   46 ar   
    48   44   45 1    
    49   46   48 ar   
    50   46   47 1    
    51   48   49 1    
    52   49   51 1    
    53   49   50 2    
    54   51   52 1    
    55   51   54 1    
    56   51   53 1    
    57   54   55 1    
    58   54   56 am   BACKBONE|DICT|INTERRES
    59   56   58 1    
    60   56   57 2    
    61   58   59 1    
    62   58   60 1    
    63   60   61 1    
    64   60   62 1    
    65   60   63 1    
    66   63   72 ar   
    67   63   64 ar   
    68   64   65 1    
    69   64   66 ar   
    70   66   68 ar   
    71   66   67 1    
    72   68   69 1    
    73   68   70 ar   
    74   70   71 1    
    75   70   72 ar   
    76   72   73 1    
    77   74   76 1    
    78   74   75 1    
    79   74   77 1    
    80   74   78 1    
    81   78   83 2    
    82   78   79 1    
    83   79   80 1    
    84   79   81 1    
    85   79   82 1    
    86   84   87 1    
    87   84   85 1    
    88   84   86 1    
    89   84   88 1    
    90   88   89 1    
    91   88   93 2    
    92   89   92 1    
    93   89   90 1    
    94   89   91 1    
@<TRIPOS>SUBSTRUCTURE
     1 UNK         1 GROUP             0       ****    0 ROOT    
@<TRIPOS>MOLECULE
Cpd3-3000
93   94    1
SMALL
USER_CHARGES


@<TRIPOS>ATOM
      1 C1         29.0133   33.0495   31.0779 C.3       1 UNK         0.0000 
      2 H2         29.9821   32.6194   31.3615 H         1 UNK         0.0000 
      3 H3         29.0779   34.0878   31.4255 H         1 UNK         0.0000 
      4 H4         28.2957   32.5390   31.7325 H         1 UNK         0.0000 
      5 C5         28.7399   32.8221   29.6360 C.3       1 UNK         0.0000 
      6 C6         30.0028   33.1764   28.7926 C.3       1 UNK         0.0000 
      7 H7         29.7963   32.8862   27.7548 H         1 UNK         0.0000 
      8 H8         30.0548   34.2718   28.8241 H         1 UNK         0.0000 
      9 H9         30.8999   32.6500   29.1415 H         1 UNK         0.0000 
     10 C10        27.5354   33.6577   29.1814 C.3       1 UNK         0.0000 
     11 H11        26.9418   33.4463   28.2832 H         1 UNK         0.0000 
     12 H12        26.7957   33.8221   29.9748 H         1 UNK         0.0000 
     13 H13        27.9092   34.6674   28.9721 H         1 UNK         0.0000 
     14 O14        28.5742   31.4146   29.4399 O.3       1 UNK         0.0000 
     15 C15        28.1244   30.8602   28.2530 C.2       1 UNK         0.0000 
     16 O16        27.8887   31.4513   27.1764 O.2       1 UNK         0.0000 
     17 N17        28.2404   29.4710   28.3891 N.am      1 UNK         0.0000 
     18 H18        28.6097   29.1900   29.2891 H         1 UNK         0.0000 
     19 C19        27.9788   28.5236   27.2502 C.3       1 UNK         0.0000 
     20 C20        27.2717   27.2232   27.7193 C.2       1 UNK         0.0000 
     21 N21        25.9269   27.3344   27.9410 N.am      1 UNK         0.0000 
     22 H22        25.5312   28.2587   27.8129 H         1 UNK         0.0000 
     23 O23        27.9527   26.2195   28.0813 O.2       1 UNK         0.0000 
     24 H24        27.2265   29.1058   26.7037 H         1 UNK         0.0000 
     25 C25        29.3155   28.4174   26.5393 C.3       1 UNK         0.0000 
     26 H26        29.9495   27.7605   27.1463 H         1 UNK         0.0000 
     27 H27        29.7579   29.4210   26.5524 H         1 UNK         0.0000 
     28 C28        28.9933   27.7892   25.2026 C.ar      1 UNK         0.0000 
     29 C29        28.9190   26.3666   25.1296 C.ar      1 UNK         0.0000 
     30 C30        28.2485   25.7906   24.0282 C.ar      1 UNK         0.0000 
     31 H31        28.0368   24.7257   24.0344 H         1 UNK         0.0000 
     32 H32        29.3298   25.8164   25.9710 H         1 UNK         0.0000 
     33 C33        28.5219   28.6248   24.1286 C.ar      1 UNK         0.0000 
     34 H34        28.5130   29.7080   24.2184 H         1 UNK         0.0000 
     35 C35        28.0207   27.9498   22.9467 C.ar      1 UNK         0.0000 
     36 H36        27.6043   28.5905   22.1749 H         1 UNK         0.0000 
     37 C37        27.7468   26.5619   22.9605 C.ar      1 UNK         0.0000 
     38 O38        26.8086   26.0173   22.0803 O.3       1 UNK         0.0000 
     39 C39        25.5089   26.2009   22.4794 C.ar      1 UNK         0.0000 
     40 C40        24.8762   27.3850   22.2741 C.ar      1 UNK         0.0000 
     41 C41        23.6782   27.6647   22.9530 C.ar      1 UNK         0.0000 
     42 H42        23.2368   28.6317   22.7316 H         1 UNK         0.0000 
     43 H43        25.3709   28.1405   21.6703 H         1 UNK         0.0000 
     44 C44        24.9327   25.2528   23.3712 C.ar      1 UNK         0.0000 
     45 H45        25.3033   24.2335   23.4144 H         1 UNK         0.0000 
     46 C46        23.7190   25.5394   24.0397 C.ar      1 UNK         0.0000 
     47 H47        23.4684   24.7627   24.7573 H         1 UNK         0.0000 
     48 C48        23.1068   26.8067   23.9308 C.ar      1 UNK         0.0000 
     49 C49        22.0579   27.2520   24.8622 C.2       1 UNK         0.0000 
     50 O50        21.4118   28.2945   24.7915 O.2       1 UNK         0.0000 
     51 C51        21.9895   26.4749   26.1971 C.3       1 UNK         0.0000 
     52 H52        21.2424   26.9653   26.8334 H         1 UNK         0.0000 
     53 H53        21.7550   25.4504   25.8815 H         1 UNK         0.0000 
     54 N54        23.2835   26.6633   26.9916 N.am      1 UNK         0.0000 
     55 H55        23.9248   27.3791   26.6717 H         1 UNK         0.0000 
     56 C56        23.7103   26.0227   28.1295 C.2       1 UNK         0.0000 
     57 O57        23.0188   25.1739   28.6809 O.2       1 UNK         0.0000 
     58 C58        25.1308   26.4002   28.7614 C.3       1 UNK         0.0000 
     59 H59        25.5378   25.3828   28.8131 H         1 UNK         0.0000 
     60 C60        25.0406   27.0196   30.1636 C.3       1 UNK         0.0000 
     61 H61        25.9778   26.8640   30.7124 H         1 UNK         0.0000 
     62 H62        24.2573   26.4047   30.6209 H         1 UNK         0.0000 
     63 C63        24.5800   28.4710   30.2656 C.ar      1 UNK         0.0000 
     64 C64        25.5468   29.4107   30.5373 C.ar      1 UNK         0.0000 
     65 H65        26.5784   29.1863   30.7905 H         1 UNK         0.0000 
     66 C66        25.2688   30.7719   30.4221 C.ar      1 UNK         0.0000 
     67 H67        26.0146   31.5478   30.5724 H         1 UNK         0.0000 
     68 C68        23.9622   31.1218   30.0546 C.ar      1 UNK         0.0000 
     69 H69        23.6953   32.1742   30.0210 H         1 UNK         0.0000 
     70 C70        22.9746   30.1520   29.7486 C.ar      1 UNK         0.0000 
     71 H71        22.0190   30.4573   29.3314 H         1 UNK         0.0000 
     72 C72        23.2737   28.8014   29.9355 C.ar      1 UNK         0.0000 
     73 H73        22.5563   28.0309   29.6707 H         1 UNK         0.0000 
     74 C74        29.5906   27.5576   33.6499 C.3       1 UNK         0.0000 
     75 H75        30.6297   27.4611   33.3118 H         1 UNK         0.0000 
     76 H76        28.9986   26.6603   33.4308 H         1 UNK         0.0000 
     77 H77        29.4484   27.7094   34.7265 H         1 UNK         0.0000 
     78 S78        29.0455   28.9705   32.5578 S.3       1 UNK         0.0000 
     79 C79        27.4313   28.6735   33.2641 C.3       1 UNK         0.0000 
     80 H80        27.3676   28.9662   34.3190 H         1 UNK         0.0000 
     81 H81        27.0872   27.6324   33.2321 H         1 UNK         0.0000 
     82 H82        26.7070   29.3834   32.8465 H         1 UNK         0.0000 
     83 O83        28.8860   28.4193   31.2252 O.2       1 UNK         0.0000 
     84 C84        25.8501   30.8095   24.5687 C.3       1 UNK         0.0000 
     85 H85        25.7451   31.8688   24.3039 H         1 UNK         0.0000 
     86 H86        26.0080   30.2685   23.6285 H         1 UNK         0.0000 
     87 H87        26.6651   30.5480   25.2548 H         1 UNK         0.0000 
     88 S88        24.3001   30.1537   25.2569 S.3       1 UNK         0.0000 
     89 C89        24.1916   31.4673   26.5519 C.3       1 UNK         0.0000 
     90 H90        24.9520   31.1850   27.2911 H         1 UNK         0.0000 
     91 H91        23.2309   31.2396   27.0303 H         1 UNK         0.0000 
     92 H92        24.2027   32.5114   26.2183 H         1 UNK         0.0000 
     93 O93        24.6857   28.9763   26.1025 O.2       1 UNK         0.0000 
@<TRIPOS>BOND
     1    1    2 1    
     2    1    4 1    
     3    1    3 1    
     4    1    5 1    
     5    5    6 1    
     6    5   10 1    
     7    5   14 1    
     8    6    9 1    
     9    6    8 1    
    10    6    7 1    
    11   10   13 1    
    12   10   12 1    
    13   10   11 1    
    14   14   15 1    
    15   15   16 2    
    16   15   17 am   BACKBONE|DICT|INTERRES
    17   17   18 1    
    18   17   19 1    
    19   19   24 1    
    20   19   20 1    
    21   19   25 1    
    22   20   21 am   BACKBONE|DICT|INTERRES
    23   20   23 2    
    24   21   22 1    
    25   21   58 1    
    26   25   26 1    
    27   25   27 1    
    28   25   28 1    
    29   28   29 ar   
    30   28   33 ar   
    31   29   32 1    
    32   29   30 ar   
    33   30   31 1    
    34   30   37 ar   
    35   33   34 1    
    36   33   35 ar   
    37   35   36 1    
    38   35   37 ar   
    39   37   38 1    
    40   38   39 1    
    41   39   40 ar   
    42   39   44 ar   
    43   40   41 ar   
    44   40   43 1    
    45   41   42 1    
    46   41   48 ar   
    47   44   46 ar   
    48   44   45 1    
    49   46   47 1    
    50   46   48 ar   
    51   48   49 1    
    52   49   50 2    
    53   49   51 1    
    54   51   52 1    
    55   51   54 1    
    56   51   53 1    
    57   54   55 1    
    58   54   56 am   BACKBONE|DICT|INTERRES
    59   56   57 2    
    60   56   58 1    
    61   58   59 1    
    62   58   60 1    
    63   60   62 1    
    64   60   61 1    
    65   60   63 1    
    66   63   64 ar   
    67   63   72 ar   
    68   64   65 1    
    69   64   66 ar   
    70   66   67 1    
    71   66   68 ar   
    72   68   69 1    
    73   68   70 ar   
    74   70   71 1    
    75   70   72 ar   
    76   72   73 1    
    77   74   77 1    
    78   74   75 1    
    79   74   76 1    
    80   74   78 1    
    81   78   79 1    
    82   78   83 2    
    83   79   80 1    
    84   79   81 1    
    85   79   82 1    
    86   84   85 1    
    87   84   88 1    
    88   84   87 1    
    89   84   86 1    
    90   88   93 2    
    91   88   89 1    
    92   89   92 1    
    93   89   91 1    
    94   89   90 1    
@<TRIPOS>SUBSTRUCTURE
     1 UNK         1 GROUP             0       ****    0 ROOT    
@<TRIPOS>MOLECULE
Cpd3-3500-MRC
93   94    1
SMALL
USER_CHARGES


@<TRIPOS>ATOM
      1 C1         30.1296   33.0398   30.8445 C.3       1 UNK         0.0000 
      2 H2         29.8580   34.0568   31.1536 H         1 UNK         0.0000 
      3 H3         30.5787   32.5477   31.7156 H         1 UNK         0.0000 
      4 H4         30.8027   33.1743   29.9885 H         1 UNK         0.0000 
      5 C5         28.8109   32.2621   30.4504 C.3       1 UNK         0.0000 
      6 C6         28.1588   32.9576   29.3040 C.3       1 UNK         0.0000 
      7 H7         27.1154   32.6547   29.1541 H         1 UNK         0.0000 
      8 H8         28.1119   34.0351   29.5016 H         1 UNK         0.0000 
      9 H9         28.6852   32.9492   28.3423 H         1 UNK         0.0000 
     10 C10        27.9241   32.2264   31.7411 C.3       1 UNK         0.0000 
     11 H11        27.8166   33.2203   32.1909 H         1 UNK         0.0000 
     12 H12        26.8919   31.9718   31.4695 H         1 UNK         0.0000 
     13 H13        28.2523   31.4821   32.4765 H         1 UNK         0.0000 
     14 O14        29.2235   30.9974   29.9757 O.3       1 UNK         0.0000 
     15 C15        28.2988   30.1503   29.4639 C.2       1 UNK         0.0000 
     16 O16        27.0895   30.2980   29.4276 O.2       1 UNK         0.0000 
     17 N17        28.9400   29.3766   28.5705 N.am      1 UNK         0.0000 
     18 H18        29.9449   29.4995   28.6007 H         1 UNK         0.0000 
     19 C19        28.3174   28.5246   27.5234 C.3       1 UNK         0.0000 
     20 C20        27.5203   27.2659   27.9155 C.2       1 UNK         0.0000 
     21 N21        26.1243   27.4097   27.6889 N.am      1 UNK         0.0000 
     22 H22        25.7852   28.2230   27.1898 H         1 UNK         0.0000 
     23 O23        28.0727   26.2495   28.4753 O.2       1 UNK         0.0000 
     24 H24        27.5791   29.1298   26.9840 H         1 UNK         0.0000 
     25 C25        29.4391   28.1069   26.6203 C.3       1 UNK         0.0000 
     26 H26        30.1235   27.3484   27.0182 H         1 UNK         0.0000 
     27 H27        30.0110   29.0219   26.4207 H         1 UNK         0.0000 
     28 C28        28.9516   27.6023   25.2305 C.ar      1 UNK         0.0000 
     29 C29        28.8104   26.2068   25.0401 C.ar      1 UNK         0.0000 
     30 C30        28.1906   25.7128   23.8781 C.ar      1 UNK         0.0000 
     31 H31        27.9006   24.6889   23.6634 H         1 UNK         0.0000 
     32 H32        29.2728   25.5388   25.7610 H         1 UNK         0.0000 
     33 C33        28.4737   28.5465   24.2485 C.ar      1 UNK         0.0000 
     34 H34        28.4630   29.6218   24.3991 H         1 UNK         0.0000 
     35 C35        27.8336   28.0482   23.1025 C.ar      1 UNK         0.0000 
     36 H36        27.3999   28.7345   22.3817 H         1 UNK         0.0000 
     37 C37        27.7326   26.6529   22.9403 C.ar      1 UNK         0.0000 
     38 O38        26.7751   26.2509   22.0622 O.3       1 UNK         0.0000 
     39 C39        25.4513   26.3946   22.5677 C.ar      1 UNK         0.0000 
     40 C40        24.7894   27.6420   22.5562 C.ar      1 UNK         0.0000 
     41 C41        23.5539   27.7348   23.2203 C.ar      1 UNK         0.0000 
     42 H42        23.0303   28.6801   23.3268 H         1 UNK         0.0000 
     43 H43        25.1806   28.5223   22.0530 H         1 UNK         0.0000 
     44 C44        24.8908   25.3267   23.2310 C.ar      1 UNK         0.0000 
     45 H45        25.4294   24.3833   23.2526 H         1 UNK         0.0000 
     46 C46        23.7145   25.4233   23.9752 C.ar      1 UNK         0.0000 
     47 H47        23.3542   24.5252   24.4678 H         1 UNK         0.0000 
     48 C48        23.0912   26.6861   23.9866 C.ar      1 UNK         0.0000 
     49 C49        21.9022   26.9279   24.8294 C.2       1 UNK         0.0000 
     50 O50        20.9197   27.5097   24.3305 O.2       1 UNK         0.0000 
     51 C51        21.9833   26.4127   26.2516 C.3       1 UNK         0.0000 
     52 H52        21.1408   26.8417   26.8081 H         1 UNK         0.0000 
     53 H53        21.9781   25.3159   26.2435 H         1 UNK         0.0000 
     54 N54        23.2715   26.8926   26.8978 N.am      1 UNK         0.0000 
     55 H55        23.8010   27.6879   26.5601 H         1 UNK         0.0000 
     56 C56        23.8788   26.2466   27.9488 C.2       1 UNK         0.0000 
     57 O57        23.3710   25.2164   28.3201 O.2       1 UNK         0.0000 
     58 C58        25.0700   26.9587   28.6294 C.3       1 UNK         0.0000 
     59 H59        25.4301   26.1914   29.3256 H         1 UNK         0.0000 
     60 C60        24.5561   28.0970   29.5209 C.3       1 UNK         0.0000 
     61 H61        23.9685   28.7528   28.8666 H         1 UNK         0.0000 
     62 H62        25.4595   28.5980   29.8904 H         1 UNK         0.0000 
     63 C63        23.8070   27.7062   30.7866 C.ar      1 UNK         0.0000 
     64 C64        22.4140   27.8866   30.8797 C.ar      1 UNK         0.0000 
     65 H65        21.8690   28.0232   29.9500 H         1 UNK         0.0000 
     66 C66        21.7121   27.4931   32.0480 C.ar      1 UNK         0.0000 
     67 H67        20.6357   27.6195   32.1222 H         1 UNK         0.0000 
     68 C68        22.4257   27.0483   33.1717 C.ar      1 UNK         0.0000 
     69 H69        21.9387   26.6926   34.0750 H         1 UNK         0.0000 
     70 C70        23.8503   26.8723   33.0478 C.ar      1 UNK         0.0000 
     71 H71        24.4135   26.4191   33.8581 H         1 UNK         0.0000 
     72 C72        24.4932   27.2042   31.9003 C.ar      1 UNK         0.0000 
     73 H73        25.5624   27.0328   31.9767 H         1 UNK         0.0000 
     74 C74        25.1232   31.8511   27.1197 C.3       1 UNK         0.0000 
     75 H75        25.2320   31.4857   28.1482 H         1 UNK         0.0000 
     76 H76        24.0647   32.0137   26.8809 H         1 UNK         0.0000 
     77 H77        25.7363   32.7222   26.8555 H         1 UNK         0.0000 
     78 S78        25.5999   30.3849   26.1993 S.3       1 UNK         0.0000 
     79 C79        25.3839   31.1636   24.6040 C.3       1 UNK         0.0000 
     80 H80        26.2135   31.8467   24.3847 H         1 UNK         0.0000 
     81 H81        24.4750   31.7637   24.4776 H         1 UNK         0.0000 
     82 H82        25.4211   30.3427   23.8778 H         1 UNK         0.0000 
     83 O83        24.4547   29.4055   26.2974 O.2       1 UNK         0.0000 
     84 C84        34.3312   28.6747   28.8508 C.3       1 UNK         0.0000 
     85 H85        34.7280   29.6970   28.8541 H         1 UNK         0.0000 
     86 H86        34.3619   28.3707   27.7978 H         1 UNK         0.0000 
     87 H87        34.9018   28.0346   29.5361 H         1 UNK         0.0000 
     88 S88        32.6447   28.7254   29.5794 S.3       1 UNK         0.0000 
     89 C89        32.2670   27.0160   29.2617 C.3       1 UNK         0.0000 
     90 H90        32.8872   26.3971   29.9210 H         1 UNK         0.0000 
     91 H91        32.4581   26.8377   28.1968 H         1 UNK         0.0000 
     92 H92        31.2169   26.8858   29.5493 H         1 UNK         0.0000 
     93 O93        31.8506   29.5567   28.5977 O.2       1 UNK         0.0000 
@<TRIPOS>BOND
     1    1    2 1    
     2    1    3 1    
     3    1    4 1    
     4    1    5 1    
     5    5   10 1    
     6    5    6 1    
     7    5   14 1    
     8    6    8 1    
     9    6    7 1    
    10    6    9 1    
    11   10   13 1    
    12   10   11 1    
    13   10   12 1    
    14   14   15 1    
    15   15   16 2    
    16   15   17 am   BACKBONE|DICT|INTERRES
    17   17   18 1    
    18   17   19 1    
    19   19   24 1    
    20   19   20 1    
    21   19   25 1    
    22   20   23 2    
    23   20   21 am   BACKBONE|DICT|INTERRES
    24   21   58 1    
    25   21   22 1    
    26   25   27 1    
    27   25   26 1    
    28   25   28 1    
    29   28   29 ar   
    30   28   33 ar   
    31   29   32 1    
    32   29   30 ar   
    33   30   31 1    
    34   30   37 ar   
    35   33   34 1    
    36   33   35 ar   
    37   35   36 1    
    38   35   37 ar   
    39   37   38 1    
    40   38   39 1    
    41   39   40 ar   
    42   39   44 ar   
    43   40   41 ar   
    44   40   43 1    
    45   41   42 1    
    46   41   48 ar   
    47   44   46 ar   
    48   44   45 1    
    49   46   48 ar   
    50   46   47 1    
    51   48   49 1    
    52   49   51 1    
    53   49   50 2    
    54   51   52 1    
    55   51   54 1    
    56   51   53 1    
    57   54   56 am   BACKBONE|DICT|INTERRES
    58   54   55 1    
    59   56   57 2    
    60   56   58 1    
    61   58   59 1    
    62   58   60 1    
    63   60   62 1    
    64   60   63 1    
    65   60   61 1    
    66   63   64 ar   
    67   63   72 ar   
    68   64   66 ar   
    69   64   65 1    
    70   66   67 1    
    71   66   68 ar   
    72   68   69 1    
    73   68   70 ar   
    74   70   71 1    
    75   70   72 ar   
    76   72   73 1    
    77   74   75 1    
    78   74   76 1    
    79   74   77 1    
    80   74   78 1    
    81   78   79 1    
    82   78   83 2    
    83   79   80 1    
    84   79   81 1    
    85   79   82 1    
    86   84   85 1    
    87   84   87 1    
    88   84   88 1    
    89   84   86 1    
    90   88   89 1    
    91   88   93 2    
    92   89   92 1    
    93   89   90 1    
    94   89   91 1    
@<TRIPOS>SUBSTRUCTURE
     1 UNK         1 GROUP             0       ****    0 ROOT    
@<TRIPOS>MOLECULE
Cpd3-4000
93   94    1
SMALL
USER_CHARGES


@<TRIPOS>ATOM
      1 C1         31.3259   31.0881   31.6347 C.3       1 UNK         0.0000 
      2 H2         31.5073   31.8830   32.3678 H         1 UNK         0.0000 
      3 H3         31.0469   30.2277   32.2551 H         1 UNK         0.0000 
      4 H4         32.1900   30.7541   31.0463 H         1 UNK         0.0000 
      5 C5         30.1311   31.4295   30.7017 C.3       1 UNK         0.0000 
      6 C6         30.7453   32.3307   29.6159 C.3       1 UNK         0.0000 
      7 H7         31.5714   32.9465   29.9907 H         1 UNK         0.0000 
      8 H8         31.3318   31.7595   28.8862 H         1 UNK         0.0000 
      9 H9         30.0363   33.0359   29.1636 H         1 UNK         0.0000 
     10 C10        29.0537   31.9892   31.5409 C.3       1 UNK         0.0000 
     11 H11        29.4805   32.8398   32.0857 H         1 UNK         0.0000 
     12 H12        28.1696   32.2762   30.9597 H         1 UNK         0.0000 
     13 H13        28.7496   31.2869   32.3263 H         1 UNK         0.0000 
     14 O14        29.6458   30.2367   30.2425 O.3       1 UNK         0.0000 
     15 C15        28.7509   30.1637   29.2108 C.2       1 UNK         0.0000 
     16 O16        28.2703   31.0684   28.6512 O.2       1 UNK         0.0000 
     17 N17        28.7277   28.8701   28.8080 N.am      1 UNK         0.0000 
     18 H18        29.2304   28.2295   29.4095 H         1 UNK         0.0000 
     19 C19        28.2714   28.2519   27.5193 C.3       1 UNK         0.0000 
     20 C20        27.2910   27.0885   27.6598 C.2       1 UNK         0.0000 
     21 N21        26.0021   27.4646   27.7650 N.am      1 UNK         0.0000 
     22 H22        25.5680   28.1865   27.2026 H         1 UNK         0.0000 
     23 O23        27.5842   25.9278   27.8383 O.2       1 UNK         0.0000 
     24 H24        27.6582   29.0260   27.0398 H         1 UNK         0.0000 
     25 C25        29.5068   27.8945   26.6569 C.3       1 UNK         0.0000 
     26 H26        29.9979   27.0201   27.1013 H         1 UNK         0.0000 
     27 H27        30.1817   28.7577   26.5951 H         1 UNK         0.0000 
     28 C28        29.0722   27.4853   25.2072 C.ar      1 UNK         0.0000 
     29 C29        29.0214   26.1395   24.7918 C.ar      1 UNK         0.0000 
     30 C30        28.3886   25.8273   23.5898 C.ar      1 UNK         0.0000 
     31 H31        28.3299   24.7744   23.3281 H         1 UNK         0.0000 
     32 H32        29.4007   25.3392   25.4210 H         1 UNK         0.0000 
     33 C33        28.6417   28.4956   24.3557 C.ar      1 UNK         0.0000 
     34 H34        28.5349   29.5141   24.7157 H         1 UNK         0.0000 
     35 C35        27.7589   28.1066   23.2531 C.ar      1 UNK         0.0000 
     36 H36        27.2477   28.9392   22.7781 H         1 UNK         0.0000 
     37 C37        27.6867   26.7723   22.8656 C.ar      1 UNK         0.0000 
     38 O38        26.8257   26.4397   21.8626 O.3       1 UNK         0.0000 
     39 C39        25.5808   26.3753   22.4005 C.ar      1 UNK         0.0000 
     40 C40        24.5766   27.2971   22.1081 C.ar      1 UNK         0.0000 
     41 C41        23.4211   27.4550   22.8950 C.ar      1 UNK         0.0000 
     42 H42        22.6866   28.2182   22.6533 H         1 UNK         0.0000 
     43 H43        24.6466   27.8517   21.1765 H         1 UNK         0.0000 
     44 C44        25.3472   25.4654   23.4670 C.ar      1 UNK         0.0000 
     45 H45        26.1103   24.7724   23.8084 H         1 UNK         0.0000 
     46 C46        24.1603   25.5310   24.2330 C.ar      1 UNK         0.0000 
     47 H47        24.1171   24.9532   25.1520 H         1 UNK         0.0000 
     48 C48        23.2248   26.6008   24.0006 C.ar      1 UNK         0.0000 
     49 C49        21.9888   26.7732   24.8994 C.2       1 UNK         0.0000 
     50 O50        20.9089   27.2314   24.5520 O.2       1 UNK         0.0000 
     51 C51        22.1208   26.3094   26.3600 C.3       1 UNK         0.0000 
     52 H52        21.2820   26.5899   27.0076 H         1 UNK         0.0000 
     53 H53        22.2734   25.2284   26.4675 H         1 UNK         0.0000 
     54 N54        23.3675   26.9166   26.9959 N.am      1 UNK         0.0000 
     55 H55        24.1539   27.2526   26.4537 H         1 UNK         0.0000 
     56 C56        23.6046   26.7804   28.3472 C.2       1 UNK         0.0000 
     57 O57        22.6634   26.4501   29.0600 O.2       1 UNK         0.0000 
     58 C58        25.1134   26.8698   28.7864 C.3       1 UNK         0.0000 
     59 H59        25.4258   25.8226   28.8822 H         1 UNK         0.0000 
     60 C60        25.2128   27.3525   30.2427 C.3       1 UNK         0.0000 
     61 H61        26.2474   27.5033   30.5754 H         1 UNK         0.0000 
     62 H62        24.8398   26.5818   30.9285 H         1 UNK         0.0000 
     63 C63        24.5925   28.6389   30.5602 C.ar      1 UNK         0.0000 
     64 C64        25.3926   29.7511   30.4021 C.ar      1 UNK         0.0000 
     65 H65        26.3433   29.7287   29.8769 H         1 UNK         0.0000 
     66 C66        24.8654   31.0623   30.6790 C.ar      1 UNK         0.0000 
     67 H67        25.4211   31.9699   30.4639 H         1 UNK         0.0000 
     68 C68        23.6302   31.1645   31.3661 C.ar      1 UNK         0.0000 
     69 H69        23.3056   32.1693   31.6166 H         1 UNK         0.0000 
     70 C70        22.7941   30.0280   31.5284 C.ar      1 UNK         0.0000 
     71 H71        21.9318   30.0666   32.1861 H         1 UNK         0.0000 
     72 C72        23.3284   28.7771   31.1403 C.ar      1 UNK         0.0000 
     73 H73        22.6308   27.9585   31.2855 H         1 UNK         0.0000 
     74 C74        32.0499   25.4190   31.4895 C.3       1 UNK         0.0000 
     75 H75        31.9241   25.9764   32.4254 H         1 UNK         0.0000 
     76 H76        32.9985   24.8706   31.5268 H         1 UNK         0.0000 
     77 H77        31.1358   24.8285   31.3498 H         1 UNK         0.0000 
     78 S78        31.9412   26.5288   30.0619 S.3       1 UNK         0.0000 
     79 C79        32.8236   27.8411   30.9180 C.3       1 UNK         0.0000 
     80 H80        32.5391   28.0027   31.9651 H         1 UNK         0.0000 
     81 H81        32.6230   28.7618   30.3574 H         1 UNK         0.0000 
     82 H82        33.8788   27.5590   31.0192 H         1 UNK         0.0000 
     83 O83        30.5394   26.9790   29.8674 O.2       1 UNK         0.0000 
     84 C84        25.2528   31.5059   26.9732 C.3       1 UNK         0.0000 
     85 H85        24.6077   32.3780   26.8133 H         1 UNK         0.0000 
     86 H86        26.3029   31.7941   26.8411 H         1 UNK         0.0000 
     87 H87        24.9747   31.0720   27.9418 H         1 UNK         0.0000 
     88 S88        24.6676   30.5253   25.4877 S.3       1 UNK         0.0000 
     89 C89        23.0369   30.0483   26.3196 C.3       1 UNK         0.0000 
     90 H90        22.5833   29.3873   25.5710 H         1 UNK         0.0000 
     91 H91        22.5186   31.0009   26.4831 H         1 UNK         0.0000 
     92 H92        23.1617   29.4987   27.2608 H         1 UNK         0.0000 
     93 O93        25.4076   29.1545   25.5290 O.2       1 UNK         0.0000 
@<TRIPOS>BOND
     1    1    3 1    
     2    1    2 1    
     3    1    4 1    
     4    1    5 1    
     5    5   10 1    
     6    5    6 1    
     7    5   14 1    
     8    6    7 1    
     9    6    8 1    
    10    6    9 1    
    11   10   13 1    
    12   10   11 1    
    13   10   12 1    
    14   14   15 1    
    15   15   16 2    
    16   15   17 am   BACKBONE|DICT|INTERRES
    17   17   18 1    
    18   17   19 1    
    19   19   24 1    
    20   19   20 1    
    21   19   25 1    
    22   20   21 am   BACKBONE|DICT|INTERRES
    23   20   23 2    
    24   21   58 1    
    25   21   22 1    
    26   25   26 1    
    27   25   27 1    
    28   25   28 1    
    29   28   29 ar   
    30   28   33 ar   
    31   29   32 1    
    32   29   30 ar   
    33   30   31 1    
    34   30   37 ar   
    35   33   34 1    
    36   33   35 ar   
    37   35   36 1    
    38   35   37 ar   
    39   37   38 1    
    40   38   39 1    
    41   39   44 ar   
    42   39   40 ar   
    43   40   41 ar   
    44   40   43 1    
    45   41   48 ar   
    46   41   42 1    
    47   44   45 1    
    48   44   46 ar   
    49   46   48 ar   
    50   46   47 1    
    51   48   49 1    
    52   49   51 1    
    53   49   50 2    
    54   51   52 1    
    55   51   54 1    
    56   51   53 1    
    57   54   56 am   BACKBONE|DICT|INTERRES
    58   54   55 1    
    59   56   57 2    
    60   56   58 1    
    61   58   59 1    
    62   58   60 1    
    63   60   62 1    
    64   60   61 1    
    65   60   63 1    
    66   63   64 ar   
    67   63   72 ar   
    68   64   66 ar   
    69   64   65 1    
    70   66   67 1    
    71   66   68 ar   
    72   68   69 1    
    73   68   70 ar   
    74   70   71 1    
    75   70   72 ar   
    76   72   73 1    
    77   74   75 1    
    78   74   76 1    
    79   74   77 1    
    80   74   78 1    
    81   78   79 1    
    82   78   83 2    
    83   79   82 1    
    84   79   80 1    
    85   79   81 1    
    86   84   86 1    
    87   84   85 1    
    88   84   87 1    
    89   84   88 1    
    90   88   89 1    
    91   88   93 2    
    92   89   91 1    
    93   89   92 1    
    94   89   90 1    
@<TRIPOS>SUBSTRUCTURE
     1 UNK         1 GROUP             0       ****    0 ROOT    
@<TRIPOS>MOLECULE
Cpd3-4500
93   94    1
SMALL
USER_CHARGES


@<TRIPOS>ATOM
      1 C1         28.9811   32.4676   31.7374 C.3       1 UNK         0.0000 
      2 H2         29.8387   31.8192   31.9552 H         1 UNK         0.0000 
      3 H3         29.2427   33.4393   32.1729 H         1 UNK         0.0000 
      4 H4         28.0672   32.0607   32.1868 H         1 UNK         0.0000 
      5 C5         28.8995   32.4545   30.1752 C.3       1 UNK         0.0000 
      6 C6         30.2750   32.9254   29.5715 C.3       1 UNK         0.0000 
      7 H7         30.5002   33.9485   29.8997 H         1 UNK         0.0000 
      8 H8         31.1798   32.3532   29.8094 H         1 UNK         0.0000 
      9 H9         30.1793   32.9652   28.4795 H         1 UNK         0.0000 
     10 C10        27.6260   33.2214   29.8388 C.3       1 UNK         0.0000 
     11 H11        26.7538   32.5647   29.9407 H         1 UNK         0.0000 
     12 H12        27.4569   34.0135   30.5786 H         1 UNK         0.0000 
     13 H13        27.7010   33.7460   28.8791 H         1 UNK         0.0000 
     14 O14        28.7208   31.1093   29.7729 O.3       1 UNK         0.0000 
     15 C15        28.5588   30.7811   28.4952 C.2       1 UNK         0.0000 
     16 O16        28.3696   31.4863   27.5165 O.2       1 UNK         0.0000 
     17 N17        28.2858   29.3917   28.5098 N.am      1 UNK         0.0000 
     18 H18        27.9932   29.0184   29.4048 H         1 UNK         0.0000 
     19 C19        28.0473   28.4770   27.3039 C.3       1 UNK         0.0000 
     20 C20        27.2205   27.1715   27.6678 C.2       1 UNK         0.0000 
     21 N21        25.8682   27.3640   27.7296 N.am      1 UNK         0.0000 
     22 H22        25.4601   28.1114   27.1817 H         1 UNK         0.0000 
     23 O23        27.6530   26.0689   28.0189 O.2       1 UNK         0.0000 
     24 H24        27.3485   28.9975   26.6383 H         1 UNK         0.0000 
     25 C25        29.3517   28.1213   26.5590 C.3       1 UNK         0.0000 
     26 H26        29.9185   27.3051   27.0220 H         1 UNK         0.0000 
     27 H27        30.0582   28.9562   26.6454 H         1 UNK         0.0000 
     28 C28        28.9012   27.6114   25.1475 C.ar      1 UNK         0.0000 
     29 C29        29.0330   26.2532   24.7758 C.ar      1 UNK         0.0000 
     30 C30        28.4691   25.7658   23.6292 C.ar      1 UNK         0.0000 
     31 H31        28.4801   24.7140   23.3600 H         1 UNK         0.0000 
     32 H32        29.6785   25.5861   25.3394 H         1 UNK         0.0000 
     33 C33        28.3212   28.5381   24.2581 C.ar      1 UNK         0.0000 
     34 H34        28.3092   29.6105   24.4272 H         1 UNK         0.0000 
     35 C35        27.8152   28.0343   23.0656 C.ar      1 UNK         0.0000 
     36 H36        27.3155   28.7222   22.3888 H         1 UNK         0.0000 
     37 C37        27.8479   26.7036   22.7823 C.ar      1 UNK         0.0000 
     38 O38        26.8994   26.0877   21.9623 O.3       1 UNK         0.0000 
     39 C39        25.6113   26.2387   22.5410 C.ar      1 UNK         0.0000 
     40 C40        24.7035   27.2287   22.0999 C.ar      1 UNK         0.0000 
     41 C41        23.6128   27.5997   22.9049 C.ar      1 UNK         0.0000 
     42 H42        22.9635   28.4296   22.6394 H         1 UNK         0.0000 
     43 H43        24.9550   27.9078   21.2904 H         1 UNK         0.0000 
     44 C44        25.2974   25.4218   23.6450 C.ar      1 UNK         0.0000 
     45 H45        25.9799   24.6719   24.0336 H         1 UNK         0.0000 
     46 C46        24.1322   25.7376   24.3887 C.ar      1 UNK         0.0000 
     47 H47        23.9629   25.0778   25.2334 H         1 UNK         0.0000 
     48 C48        23.3432   26.8502   24.0818 C.ar      1 UNK         0.0000 
     49 C49        22.1702   27.1606   24.9693 C.2       1 UNK         0.0000 
     50 O50        21.2089   27.8699   24.6388 O.2       1 UNK         0.0000 
     51 C51        22.0555   26.3888   26.3122 C.3       1 UNK         0.0000 
     52 H52        21.1145   26.7366   26.7564 H         1 UNK         0.0000 
     53 H53        21.9041   25.3054   26.2294 H         1 UNK         0.0000 
     54 N54        23.1292   26.8891   27.1602 N.am      1 UNK         0.0000 
     55 H55        23.8402   27.3800   26.6322 H         1 UNK         0.0000 
     56 C56        23.5439   26.3293   28.3064 C.2       1 UNK         0.0000 
     57 O57        22.8874   25.4541   28.8845 O.2       1 UNK         0.0000 
     58 C58        25.0057   26.5838   28.6375 C.3       1 UNK         0.0000 
     59 H59        25.4872   25.5983   28.6324 H         1 UNK         0.0000 
     60 C60        25.0282   27.2051   30.0846 C.3       1 UNK         0.0000 
     61 H61        26.0506   27.3760   30.4421 H         1 UNK         0.0000 
     62 H62        24.5769   26.4500   30.7412 H         1 UNK         0.0000 
     63 C63        24.2927   28.5027   30.3319 C.ar      1 UNK         0.0000 
     64 C64        22.9475   28.4420   30.6863 C.ar      1 UNK         0.0000 
     65 H65        22.3942   27.5086   30.6485 H         1 UNK         0.0000 
     66 C66        22.1460   29.6114   30.8413 C.ar      1 UNK         0.0000 
     67 H67        21.0811   29.3987   30.8795 H         1 UNK         0.0000 
     68 C68        22.7264   30.8791   30.6688 C.ar      1 UNK         0.0000 
     69 H69        22.1250   31.7739   30.7979 H         1 UNK         0.0000 
     70 C70        24.0889   30.9307   30.4474 C.ar      1 UNK         0.0000 
     71 H71        24.5943   31.8909   30.4864 H         1 UNK         0.0000 
     72 C72        24.8743   29.7619   30.2086 C.ar      1 UNK         0.0000 
     73 H73        25.9323   29.8828   29.9977 H         1 UNK         0.0000 
     74 C74        29.8020   28.6991   33.1852 C.3       1 UNK         0.0000 
     75 H75        30.2765   29.6093   32.7991 H         1 UNK         0.0000 
     76 H76        30.2618   27.8954   32.5974 H         1 UNK         0.0000 
     77 H77        29.9525   28.6525   34.2706 H         1 UNK         0.0000 
     78 S78        28.0199   28.7546   32.9134 S.3       1 UNK         0.0000 
     79 C79        27.7867   27.0134   33.3624 C.3       1 UNK         0.0000 
     80 H80        27.9711   26.9508   34.4411 H         1 UNK         0.0000 
     81 H81        28.4595   26.3772   32.7741 H         1 UNK         0.0000 
     82 H82        26.7722   26.7261   33.0587 H         1 UNK         0.0000 
     83 O83        27.9529   28.7782   31.4659 O.2       1 UNK         0.0000 
     84 C84        24.7880   31.2356   26.8687 C.3       1 UNK         0.0000 
     85 H85        24.7632   32.3302   26.7959 H         1 UNK         0.0000 
     86 H86        25.8547   30.9805   26.8605 H         1 UNK         0.0000 
     87 H87        24.4286   30.7566   27.7880 H         1 UNK         0.0000 
     88 S88        24.0388   30.3664   25.4624 S.3       1 UNK         0.0000 
     89 C89        22.3748   30.4735   26.1695 C.3       1 UNK         0.0000 
     90 H90        22.1057   31.5263   26.3124 H         1 UNK         0.0000 
     91 H91        22.4051   29.9773   27.1471 H         1 UNK         0.0000 
     92 H92        21.6328   30.0340   25.4909 H         1 UNK         0.0000 
     93 O93        24.5177   29.0206   25.8677 O.2       1 UNK         0.0000 
@<TRIPOS>BOND
     1    1    4 1    
     2    1    3 1    
     3    1    2 1    
     4    1    5 1    
     5    5    6 1    
     6    5   10 1    
     7    5   14 1    
     8    6    8 1    
     9    6    7 1    
    10    6    9 1    
    11   10   12 1    
    12   10   11 1    
    13   10   13 1    
    14   14   15 1    
    15   15   16 2    
    16   15   17 am   BACKBONE|DICT|INTERRES
    17   17   18 1    
    18   17   19 1    
    19   19   24 1    
    20   19   20 1    
    21   19   25 1    
    22   20   21 am   BACKBONE|DICT|INTERRES
    23   20   23 2    
    24   21   58 1    
    25   21   22 1    
    26   25   26 1    
    27   25   27 1    
    28   25   28 1    
    29   28   29 ar   
    30   28   33 ar   
    31   29   32 1    
    32   29   30 ar   
    33   30   31 1    
    34   30   37 ar   
    35   33   34 1    
    36   33   35 ar   
    37   35   36 1    
    38   35   37 ar   
    39   37   38 1    
    40   38   39 1    
    41   39   44 ar   
    42   39   40 ar   
    43   40   41 ar   
    44   40   43 1    
    45   41   42 1    
    46   41   48 ar   
    47   44   45 1    
    48   44   46 ar   
    49   46   48 ar   
    50   46   47 1    
    51   48   49 1    
    52   49   51 1    
    53   49   50 2    
    54   51   52 1    
    55   51   54 1    
    56   51   53 1    
    57   54   56 am   BACKBONE|DICT|INTERRES
    58   54   55 1    
    59   56   57 2    
    60   56   58 1    
    61   58   59 1    
    62   58   60 1    
    63   60   62 1    
    64   60   61 1    
    65   60   63 1    
    66   63   64 ar   
    67   63   72 ar   
    68   64   66 ar   
    69   64   65 1    
    70   66   68 ar   
    71   66   67 1    
    72   68   69 1    
    73   68   70 ar   
    74   70   71 1    
    75   70   72 ar   
    76   72   73 1    
    77   74   75 1    
    78   74   77 1    
    79   74   76 1    
    80   74   78 1    
    81   78   79 1    
    82   78   83 2    
    83   79   80 1    
    84   79   81 1    
    85   79   82 1    
    86   84   85 1    
    87   84   87 1    
    88   84   86 1    
    89   84   88 1    
    90   88   89 1    
    91   88   93 2    
    92   89   90 1    
    93   89   91 1    
    94   89   92 1    
@<TRIPOS>SUBSTRUCTURE
     1 UNK         1 GROUP             0       ****    0 ROOT    
@<TRIPOS>MOLECULE
Cpd3-5000
93   94    1
SMALL
USER_CHARGES


@<TRIPOS>ATOM
      1 C1         27.5891   32.9477   30.9018 C.3       1 UNK         0.0000 
      2 H2         26.6542   32.4365   31.1643 H         1 UNK         0.0000 
      3 H3         28.3685   32.3274   31.3596 H         1 UNK         0.0000 
      4 H4         27.6969   33.9518   31.3289 H         1 UNK         0.0000 
      5 C5         27.7519   33.0139   29.4023 C.3       1 UNK         0.0000 
      6 C6         29.0973   33.6051   29.0151 C.3       1 UNK         0.0000 
      7 H7         29.1528   34.6801   29.2285 H         1 UNK         0.0000 
      8 H8         29.9616   33.0566   29.4098 H         1 UNK         0.0000 
      9 H9         29.1593   33.5119   27.9238 H         1 UNK         0.0000 
     10 C10        26.5001   33.7004   28.7327 C.3       1 UNK         0.0000 
     11 H11        26.2752   34.6515   29.2299 H         1 UNK         0.0000 
     12 H12        26.7016   33.9076   27.6747 H         1 UNK         0.0000 
     13 H13        25.6434   33.0524   28.9578 H         1 UNK         0.0000 
     14 O14        27.7705   31.6183   29.1569 O.3       1 UNK         0.0000 
     15 C15        27.8229   31.0749   27.9549 C.2       1 UNK         0.0000 
     16 O16        27.7757   31.5838   26.8627 O.2       1 UNK         0.0000 
     17 N17        28.0738   29.7588   28.2547 N.am      1 UNK         0.0000 
     18 H18        28.1640   29.5937   29.2498 H         1 UNK         0.0000 
     19 C19        27.9365   28.6515   27.2862 C.3       1 UNK         0.0000 
     20 C20        27.2829   27.3640   27.8513 C.2       1 UNK         0.0000 
     21 N21        25.9271   27.3754   28.0052 N.am      1 UNK         0.0000 
     22 H22        25.5029   28.2767   27.8243 H         1 UNK         0.0000 
     23 O23        27.9334   26.3020   28.0460 O.2       1 UNK         0.0000 
     24 H24        27.3038   29.0973   26.5084 H         1 UNK         0.0000 
     25 C25        29.2521   28.3283   26.6098 C.3       1 UNK         0.0000 
     26 H26        29.8688   27.5660   27.1016 H         1 UNK         0.0000 
     27 H27        29.8331   29.2500   26.4818 H         1 UNK         0.0000 
     28 C28        28.8304   27.6462   25.3014 C.ar      1 UNK         0.0000 
     29 C29        28.7226   26.2311   25.1269 C.ar      1 UNK         0.0000 
     30 C30        28.0743   25.7256   23.9605 C.ar      1 UNK         0.0000 
     31 H31        27.9009   24.6676   23.7869 H         1 UNK         0.0000 
     32 H32        28.9671   25.6336   25.9993 H         1 UNK         0.0000 
     33 C33        28.4845   28.4774   24.1930 C.ar      1 UNK         0.0000 
     34 H34        28.7625   29.5273   24.1845 H         1 UNK         0.0000 
     35 C35        27.9283   27.9494   23.0690 C.ar      1 UNK         0.0000 
     36 H36        27.5652   28.5517   22.2409 H         1 UNK         0.0000 
     37 C37        27.7389   26.5885   22.9082 C.ar      1 UNK         0.0000 
     38 O38        26.8456   26.1721   21.9413 O.3       1 UNK         0.0000 
     39 C39        25.4892   26.2570   22.3136 C.ar      1 UNK         0.0000 
     40 C40        24.8644   27.5042   22.3040 C.ar      1 UNK         0.0000 
     41 C41        23.7016   27.7712   23.0422 C.ar      1 UNK         0.0000 
     42 H42        23.2456   28.7486   22.9179 H         1 UNK         0.0000 
     43 H43        25.4021   28.3089   21.8103 H         1 UNK         0.0000 
     44 C44        24.9253   25.2129   23.1034 C.ar      1 UNK         0.0000 
     45 H45        25.5185   24.3041   23.1433 H         1 UNK         0.0000 
     46 C46        23.8926   25.5323   23.9682 C.ar      1 UNK         0.0000 
     47 H47        23.5884   24.8421   24.7487 H         1 UNK         0.0000 
     48 C48        23.2187   26.7753   23.9803 C.ar      1 UNK         0.0000 
     49 C49        22.1408   27.2222   24.9823 C.2       1 UNK         0.0000 
     50 O50        21.3442   28.0972   24.7999 O.2       1 UNK         0.0000 
     51 C51        22.1667   26.5032   26.3196 C.3       1 UNK         0.0000 
     52 H52        21.2907   26.8163   26.9014 H         1 UNK         0.0000 
     53 H53        22.0551   25.4340   26.1021 H         1 UNK         0.0000 
     54 N54        23.3869   26.8043   27.0724 N.am      1 UNK         0.0000 
     55 H55        23.8996   27.6748   26.9939 H         1 UNK         0.0000 
     56 C56        23.8184   26.0136   28.1213 C.2       1 UNK         0.0000 
     57 O57        23.0894   25.0324   28.3778 O.2       1 UNK         0.0000 
     58 C58        25.1341   26.4117   28.7864 C.3       1 UNK         0.0000 
     59 H59        25.7178   25.4842   28.8292 H         1 UNK         0.0000 
     60 C60        25.0160   26.8876   30.2648 C.3       1 UNK         0.0000 
     61 H61        26.0067   27.1997   30.6179 H         1 UNK         0.0000 
     62 H62        24.7569   26.0154   30.8759 H         1 UNK         0.0000 
     63 C63        24.1484   28.1150   30.5261 C.ar      1 UNK         0.0000 
     64 C64        22.8358   27.9496   30.9676 C.ar      1 UNK         0.0000 
     65 H65        22.4537   26.9465   31.1250 H         1 UNK         0.0000 
     66 C66        22.0767   29.0766   31.2427 C.ar      1 UNK         0.0000 
     67 H67        21.1368   28.9656   31.7753 H         1 UNK         0.0000 
     68 C68        22.4976   30.3518   30.9167 C.ar      1 UNK         0.0000 
     69 H69        21.8575   31.2214   31.0325 H         1 UNK         0.0000 
     70 C70        23.7476   30.4729   30.2869 C.ar      1 UNK         0.0000 
     71 H71        24.0503   31.5013   30.1093 H         1 UNK         0.0000 
     72 C72        24.6392   29.3774   30.0689 C.ar      1 UNK         0.0000 
     73 H73        25.6367   29.5231   29.6638 H         1 UNK         0.0000 
     74 C74        29.3066   28.5229   33.2120 C.3       1 UNK         0.0000 
     75 H75        30.3913   28.5841   33.0586 H         1 UNK         0.0000 
     76 H76        28.9226   27.5067   33.0647 H         1 UNK         0.0000 
     77 H77        29.1272   28.9271   34.2163 H         1 UNK         0.0000 
     78 S78        28.3428   29.6195   32.0627 S.3       1 UNK         0.0000 
     79 C79        26.7405   29.3502   32.7765 C.3       1 UNK         0.0000 
     80 H80        26.1062   29.5650   31.9069 H         1 UNK         0.0000 
     81 H81        26.6695   29.9256   33.7077 H         1 UNK         0.0000 
     82 H82        26.7159   28.2867   33.0443 H         1 UNK         0.0000 
     83 O83        28.2017   28.7064   30.8921 O.2       1 UNK         0.0000 
     84 C84        24.8986   30.8905   24.4675 C.3       1 UNK         0.0000 
     85 H85        25.8972   31.2266   24.7744 H         1 UNK         0.0000 
     86 H86        24.3497   31.6983   23.9685 H         1 UNK         0.0000 
     87 H87        25.0808   30.0434   23.7944 H         1 UNK         0.0000 
     88 S88        23.8858   30.3165   25.8300 S.3       1 UNK         0.0000 
     89 C89        23.6159   31.8058   26.7784 C.3       1 UNK         0.0000 
     90 H90        24.5444   32.2034   27.2050 H         1 UNK         0.0000 
     91 H91        22.8949   31.5471   27.5630 H         1 UNK         0.0000 
     92 H92        23.3140   32.6684   26.1722 H         1 UNK         0.0000 
     93 O93        24.7455   29.4530   26.6400 O.2       1 UNK         0.0000 
@<TRIPOS>BOND
     1    1    2 1    
     2    1    3 1    
     3    1    4 1    
     4    1    5 1    
     5    5    6 1    
     6    5   10 1    
     7    5   14 1    
     8    6    8 1    
     9    6    7 1    
    10    6    9 1    
    11   10   11 1    
    12   10   12 1    
    13   10   13 1    
    14   14   15 1    
    15   15   16 2    
    16   15   17 am   BACKBONE|DICT|INTERRES
    17   17   18 1    
    18   17   19 1    
    19   19   24 1    
    20   19   20 1    
    21   19   25 1    
    22   20   21 am   BACKBONE|DICT|INTERRES
    23   20   23 2    
    24   21   22 1    
    25   21   58 1    
    26   25   26 1    
    27   25   27 1    
    28   25   28 1    
    29   28   29 ar   
    30   28   33 ar   
    31   29   32 1    
    32   29   30 ar   
    33   30   31 1    
    34   30   37 ar   
    35   33   34 1    
    36   33   35 ar   
    37   35   36 1    
    38   35   37 ar   
    39   37   38 1    
    40   38   39 1    
    41   39   44 ar   
    42   39   40 ar   
    43   40   41 ar   
    44   40   43 1    
    45   41   42 1    
    46   41   48 ar   
    47   44   46 ar   
    48   44   45 1    
    49   46   47 1    
    50   46   48 ar   
    51   48   49 1    
    52   49   50 2    
    53   49   51 1    
    54   51   52 1    
    55   51   54 1    
    56   51   53 1    
    57   54   55 1    
    58   54   56 am   BACKBONE|DICT|INTERRES
    59   56   58 1    
    60   56   57 2    
    61   58   59 1    
    62   58   60 1    
    63   60   62 1    
    64   60   61 1    
    65   60   63 1    
    66   63   72 ar   
    67   63   64 ar   
    68   64   66 ar   
    69   64   65 1    
    70   66   68 ar   
    71   66   67 1    
    72   68   69 1    
    73   68   70 ar   
    74   70   71 1    
    75   70   72 ar   
    76   72   73 1    
    77   74   77 1    
    78   74   75 1    
    79   74   76 1    
    80   74   78 1    
    81   78   79 1    
    82   78   83 2    
    83   79   81 1    
    84   79   80 1    
    85   79   82 1    
    86   84   85 1    
    87   84   88 1    
    88   84   86 1    
    89   84   87 1    
    90   88   93 2    
    91   88   89 1    
    92   89   90 1    
    93   89   91 1    
    94   89   92 1    
@<TRIPOS>SUBSTRUCTURE
     1 UNK         1 GROUP             0       ****    0 ROOT    
