@<TRIPOS>MOLECULE
Cpd3-1
73   76    1
SMALL
USER_CHARGES


@<TRIPOS>ATOM
      1 N1         -2.0027    2.9265    0.9932 N.am      1 UNK         0.0000 
      2 O2         -4.0636    2.4469    3.3393 O.2       1 UNK         0.0000 
      3 C3          4.9614    2.9774   -0.7274 C.ar      1 UNK         0.0000 
      4 N4          0.4103    0.7124   -0.4433 N.am      1 UNK         0.0000 
      5 O5          0.4487    0.8104   -2.7325 O.2       1 UNK         0.0000 
      6 C6          4.3017    2.6596   -1.9137 C.ar      1 UNK         0.0000 
      7 N7          1.7132   -1.6637   -0.3970 N.am      1 UNK         0.0000 
      8 O8         -2.2414    1.8446   -0.9924 O.2       1 UNK         0.0000 
      9 C9          4.2208    3.3636    0.3914 C.ar      1 UNK         0.0000 
     10 O10         3.8335   -0.8499   -0.1653 O.2       1 UNK         0.0000 
     11 C11         2.9084    2.7197   -1.9797 C.ar      1 UNK         0.0000 
     12 O12        -4.3314   -2.7668   -0.4139 O.3       1 UNK         0.0000 
     13 C13         2.8306    3.4288    0.3196 C.ar      1 UNK         0.0000 
     14 C14        -1.6470   -1.6728   -2.6667 C.ar      1 UNK         0.0000 
     15 C15        -0.8276   -3.4595   -1.2803 C.ar      1 UNK         0.0000 
     16 C16        -3.7144   -0.2522    2.1755 C.ar      1 UNK         0.0000 
     17 C17        -5.0127    0.7356    0.3856 C.ar      1 UNK         0.0000 
     18 C18        -2.9147   -1.8233   -2.1212 C.ar      1 UNK         0.0000 
     19 C19        -2.0935   -3.6070   -0.7067 C.ar      1 UNK         0.0000 
     20 C20        -3.7757   -1.4885    1.5404 C.ar      1 UNK         0.0000 
     21 C21        -5.1334   -0.5099   -0.2203 C.ar      1 UNK         0.0000 
     22 C22         0.8254   -2.1090   -2.6627 C.3       1 UNK         0.0000 
     23 C23        -3.4070    3.2575    1.1851 C.3       1 UNK         0.0000 
     24 C24         0.6487    3.1686   -0.9255 C.3       1 UNK         0.0000 
     25 C25        -0.5740   -2.4535   -2.2193 C.ar      1 UNK         0.0000 
     26 C26         2.1580    3.1064   -0.8656 C.ar      1 UNK         0.0000 
     27 C27        -4.2814    0.8732    1.5690 C.ar      1 UNK         0.0000 
     28 C28        -3.1137   -2.7512   -1.1008 C.ar      1 UNK         0.0000 
     29 C29        -4.4457   -1.5917    0.3232 C.ar      1 UNK         0.0000 
     30 C30        -3.9913    2.2179    2.1469 C.2       1 UNK         0.0000 
     31 C31         0.7080    0.2424   -1.6759 C.2       1 UNK         0.0000 
     32 C32        -1.5294    2.2370   -0.0782 C.2       1 UNK         0.0000 
     33 C33         2.9141   -1.5411    0.2413 C.2       1 UNK         0.0000 
     34 C34         1.4861   -1.0914   -1.7071 C.3       1 UNK         0.0000 
     35 C35        -0.0031    2.0586   -0.0745 C.3       1 UNK         0.0000 
     36 H36         2.4689   -0.8223   -2.1097 H         1 UNK         0.0000 
     37 H37         0.3504    2.1869    0.9537 H         1 UNK         0.0000 
     38 H38         6.0445    2.9285   -0.6741 H         1 UNK         0.0000 
     39 H39         4.8700    2.3609   -2.7894 H         1 UNK         0.0000 
     40 H40         4.7264    3.6197    1.3175 H         1 UNK         0.0000 
     41 H41         2.3935    2.4613   -2.9007 H         1 UNK         0.0000 
     42 H42         2.2616    3.7445    1.1918 H         1 UNK         0.0000 
     43 H43        -1.4729   -0.9100   -3.4199 H         1 UNK         0.0000 
     44 H44        -0.0242   -4.1228   -0.9672 H         1 UNK         0.0000 
     45 H45        -3.1683   -0.1400    3.1073 H         1 UNK         0.0000 
     46 H46        -5.4739    1.6007   -0.0806 H         1 UNK         0.0000 
     47 H47        -3.7315   -1.1870   -2.4436 H         1 UNK         0.0000 
     48 H48        -2.2785   -4.3459    0.0663 H         1 UNK         0.0000 
     49 H49        -3.2658   -2.3562    1.9464 H         1 UNK         0.0000 
     50 H50        -5.6839   -0.6322   -1.1469 H         1 UNK         0.0000 
     51 H51         1.4647   -2.9958   -2.6961 H         1 UNK         0.0000 
     52 H52         0.8062   -1.6627   -3.6595 H         1 UNK         0.0000 
     53 H53        -3.8956    3.2373    0.2097 H         1 UNK         0.0000 
     54 H54        -3.4917    4.2496    1.6307 H         1 UNK         0.0000 
     55 H55         0.2995    4.1245   -0.5188 H         1 UNK         0.0000 
     56 H56         0.3020    3.0896   -1.9565 H         1 UNK         0.0000 
     57 H57        -1.3649    3.1732    1.7381 H         1 UNK         0.0000 
     58 H58         0.6853    0.1128    0.3227 H         1 UNK         0.0000 
     59 H59         1.0424   -2.3160   -0.0098 H         1 UNK         0.0000 
     60 O60         2.9123   -2.2685    1.3667 O.3       1 UNK         0.0000 
     61 C61         4.0605   -2.2519    2.2767 C.3       1 UNK         0.0000 
     62 C62         3.6066   -3.1730    3.4030 C.3       1 UNK         0.0000 
     63 H63         4.3942   -3.2472    4.1571 H         1 UNK         0.0000 
     64 H64         2.7029   -2.7805    3.8773 H         1 UNK         0.0000 
     65 H65         3.3966   -4.1741    3.0163 H         1 UNK         0.0000 
     66 C66         5.2900   -2.8249    1.5787 C.3       1 UNK         0.0000 
     67 H67         5.0592   -3.8084    1.1584 H         1 UNK         0.0000 
     68 H68         5.6390   -2.1662    0.7829 H         1 UNK         0.0000 
     69 H69         6.0913   -2.9457    2.3133 H         1 UNK         0.0000 
     70 C70         4.2922   -0.8378    2.8006 C.3       1 UNK         0.0000 
     71 H71         4.6458   -0.1727    2.0119 H         1 UNK         0.0000 
     72 H72         3.3655   -0.4367    3.2224 H         1 UNK         0.0000 
     73 H73         5.0432   -0.8727    3.5951 H         1 UNK         0.0000 
@<TRIPOS>BOND
     1    1   23 1    
     2    1   57 1    
     3    1   32 am   BACKBONE|DICT|INTERRES
     4    2   30 2    
     5    3   38 1    
     6    3    9 ar   
     7    3    6 ar   
     8    4   35 1    
     9    4   58 1    
    10    4   31 am   BACKBONE|DICT|INTERRES
    11    5   31 2    
    12    6   11 ar   
    13    6   39 1    
    14    7   59 1    
    15    7   33 am   BACKBONE|DICT|INTERRES
    16    7   34 1    
    17    8   32 2    
    18    9   40 1    
    19    9   13 ar   
    20   10   33 2    
    21   11   26 ar   
    22   11   41 1    
    23   12   29 1    
    24   12   28 1    
    25   13   42 1    
    26   13   26 ar   
    27   14   25 ar   
    28   14   18 ar   
    29   14   43 1    
    30   15   44 1    
    31   15   19 ar   
    32   15   25 ar   
    33   16   45 1    
    34   16   20 ar   
    35   16   27 ar   
    36   17   27 ar   
    37   17   21 ar   
    38   17   46 1    
    39   18   28 ar   
    40   18   47 1    
    41   19   48 1    
    42   19   28 ar   
    43   20   49 1    
    44   20   29 ar   
    45   21   29 ar   
    46   21   50 1    
    47   22   25 1    
    48   22   34 1    
    49   22   51 1    
    50   22   52 1    
    51   23   54 1    
    52   23   30 1    
    53   23   53 1    
    54   24   26 1    
    55   24   55 1    
    56   24   35 1    
    57   24   56 1    
    58   27   30 1    
    59   31   34 1    
    60   32   35 1    
    61   33   60 1    
    62   34   36 1    
    63   35   37 1    
    64   60   61 1    
    65   61   70 1    
    66   61   62 1    
    67   61   66 1    
    68   62   64 1    
    69   62   63 1    
    70   62   65 1    
    71   66   69 1    
    72   66   67 1    
    73   66   68 1    
    74   70   72 1    
    75   70   73 1    
    76   70   71 1    
@<TRIPOS>SUBSTRUCTURE
     1 UNK         1 GROUP             0       ****    0 ROOT    
@<TRIPOS>MOLECULE
Cpd3-2
73   76    1
SMALL
USER_CHARGES


@<TRIPOS>ATOM
      1 N1         -2.2271    2.9266    0.8154 N.am      1 UNK         0.0000 
      2 O2         -5.2902    3.0531    2.2781 O.2       1 UNK         0.0000 
      3 C3         -4.1755    5.1205   -3.0751 C.ar      1 UNK         0.0000 
      4 N4         -0.0284    0.6144   -0.9137 N.am      1 UNK         0.0000 
      5 O5          0.5589    0.8006   -3.0970 O.2       1 UNK         0.0000 
      6 C6         -2.8410    4.8900   -3.4156 C.ar      1 UNK         0.0000 
      7 N7          1.6852   -1.4768   -0.5169 N.am      1 UNK         0.0000 
      8 O8         -0.6357    1.4524    1.4824 O.2       1 UNK         0.0000 
      9 C9         -4.8621    4.1831   -2.3055 C.ar      1 UNK         0.0000 
     10 O10         3.4016   -0.0326   -0.1269 O.2       1 UNK         0.0000 
     11 C11        -2.1969    3.7329   -2.9829 C.ar      1 UNK         0.0000 
     12 O12        -4.2563   -2.6682   -0.4327 O.3       1 UNK         0.0000 
     13 C13        -4.2140    3.0241   -1.8747 C.ar      1 UNK         0.0000 
     14 C14        -1.6008   -1.7988   -2.7949 C.ar      1 UNK         0.0000 
     15 C15        -0.7720   -3.4715   -1.2777 C.ar      1 UNK         0.0000 
     16 C16        -3.3146    0.0969    1.7826 C.ar      1 UNK         0.0000 
     17 C17        -5.4417    0.5891    0.7473 C.ar      1 UNK         0.0000 
     18 C18        -2.8627   -1.8937   -2.2217 C.ar      1 UNK         0.0000 
     19 C19        -2.0357   -3.5786   -0.6914 C.ar      1 UNK         0.0000 
     20 C20        -3.3011   -1.1477    1.1720 C.ar      1 UNK         0.0000 
     21 C21        -5.4286   -0.6518    0.1127 C.ar      1 UNK         0.0000 
     22 C22         0.8787   -2.1998   -2.7339 C.3       1 UNK         0.0000 
     23 C23        -2.9017    3.0542    2.0964 C.3       1 UNK         0.0000 
     24 C24        -2.1697    1.5299   -1.7454 C.3       1 UNK         0.0000 
     25 C25        -0.5232   -2.5351   -2.2872 C.ar      1 UNK         0.0000 
     26 C26        -2.8747    2.7869   -2.2024 C.ar      1 UNK         0.0000 
     27 C27        -4.3630    0.9927    1.5426 C.ar      1 UNK         0.0000 
     28 C28        -3.0504   -2.7391   -1.1315 C.ar      1 UNK         0.0000 
     29 C29        -4.3325   -1.4925    0.2959 C.ar      1 UNK         0.0000 
     30 C30        -4.2931    2.4016    2.0289 C.2       1 UNK         0.0000 
     31 C31         0.6338    0.2173   -2.0138 C.2       1 UNK         0.0000 
     32 C32        -1.2272    2.0460    0.5842 C.2       1 UNK         0.0000 
     33 C33         2.6743   -0.9379    0.2503 C.2       1 UNK         0.0000 
     34 C34         1.4875   -1.0558   -1.8863 C.3       1 UNK         0.0000 
     35 C35        -0.8981    1.7739   -0.8943 C.3       1 UNK         0.0000 
     36 H36         2.4634   -0.7968   -2.3073 H         1 UNK         0.0000 
     37 H37        -0.3516    2.6358   -1.2993 H         1 UNK         0.0000 
     38 H38        -4.6754    6.0235   -3.4101 H         1 UNK         0.0000 
     39 H39        -2.3019    5.6120   -4.0211 H         1 UNK         0.0000 
     40 H40        -5.9011    4.3498   -2.0389 H         1 UNK         0.0000 
     41 H41        -1.1609    3.5555   -3.2626 H         1 UNK         0.0000 
     42 H42        -4.7524    2.2912   -1.2780 H         1 UNK         0.0000 
     43 H43        -1.4320   -1.1081   -3.6174 H         1 UNK         0.0000 
     44 H44         0.0339   -4.1067   -0.9163 H         1 UNK         0.0000 
     45 H45        -2.4865    0.3745    2.4248 H         1 UNK         0.0000 
     46 H46        -6.2639    1.2789    0.5785 H         1 UNK         0.0000 
     47 H47        -3.6871   -1.2780   -2.5707 H         1 UNK         0.0000 
     48 H48        -2.2175   -4.2587    0.1346 H         1 UNK         0.0000 
     49 H49        -2.4732   -1.8297    1.3330 H         1 UNK         0.0000 
     50 H50        -6.2261   -0.9509   -0.5591 H         1 UNK         0.0000 
     51 H51         1.5434   -3.0646   -2.6514 H         1 UNK         0.0000 
     52 H52         0.8774   -1.8682   -3.7752 H         1 UNK         0.0000 
     53 H53        -3.0375    4.1049    2.3568 H         1 UNK         0.0000 
     54 H54        -2.2821    2.5757    2.8590 H         1 UNK         0.0000 
     55 H55        -2.8578    0.8838   -1.1850 H         1 UNK         0.0000 
     56 H56        -1.8430    0.9754   -2.6286 H         1 UNK         0.0000 
     57 H57        -2.6567    3.3860    0.0209 H         1 UNK         0.0000 
     58 H58         0.1162    0.1327   -0.0336 H         1 UNK         0.0000 
     59 H59         1.1327   -2.2284   -0.1254 H         1 UNK         0.0000 
     60 O60         2.7108   -1.5364    1.4487 O.3       1 UNK         0.0000 
     61 C61         3.6505   -1.0990    2.4836 C.3       1 UNK         0.0000 
     62 C62         5.0854   -1.3152    2.0130 C.3       1 UNK         0.0000 
     63 H63         5.7653   -1.1309    2.8498 H         1 UNK         0.0000 
     64 H64         5.2207   -2.3496    1.6828 H         1 UNK         0.0000 
     65 H65         5.3419   -0.6403    1.1960 H         1 UNK         0.0000 
     66 C66         3.3716    0.3524    2.8612 C.3       1 UNK         0.0000 
     67 H67         3.6181    1.0310    2.0438 H         1 UNK         0.0000 
     68 H68         2.3174    0.4756    3.1270 H         1 UNK         0.0000 
     69 H69         3.9783    0.6157    3.7324 H         1 UNK         0.0000 
     70 C70         3.3225   -2.0279    3.6465 C.3       1 UNK         0.0000 
     71 H71         2.2808   -1.9014    3.9545 H         1 UNK         0.0000 
     72 H72         3.4822   -3.0708    3.3592 H         1 UNK         0.0000 
     73 H73         3.9695   -1.7958    4.4964 H         1 UNK         0.0000 
@<TRIPOS>BOND
     1    1   32 am   BACKBONE|DICT|INTERRES
     2    1   57 1    
     3    1   23 1    
     4    2   30 2    
     5    3   38 1    
     6    3    6 ar   
     7    3    9 ar   
     8    4   31 am   BACKBONE|DICT|INTERRES
     9    4   35 1    
    10    4   58 1    
    11    5   31 2    
    12    6   39 1    
    13    6   11 ar   
    14    7   34 1    
    15    7   33 am   BACKBONE|DICT|INTERRES
    16    7   59 1    
    17    8   32 2    
    18    9   13 ar   
    19    9   40 1    
    20   10   33 2    
    21   11   41 1    
    22   11   26 ar   
    23   12   28 1    
    24   12   29 1    
    25   13   26 ar   
    26   13   42 1    
    27   14   43 1    
    28   14   18 ar   
    29   14   25 ar   
    30   15   25 ar   
    31   15   19 ar   
    32   15   44 1    
    33   16   27 ar   
    34   16   20 ar   
    35   16   45 1    
    36   17   21 ar   
    37   17   27 ar   
    38   17   46 1    
    39   18   47 1    
    40   18   28 ar   
    41   19   28 ar   
    42   19   48 1    
    43   20   49 1    
    44   20   29 ar   
    45   21   29 ar   
    46   21   50 1    
    47   22   51 1    
    48   22   52 1    
    49   22   25 1    
    50   22   34 1    
    51   23   30 1    
    52   23   53 1    
    53   23   54 1    
    54   24   26 1    
    55   24   56 1    
    56   24   35 1    
    57   24   55 1    
    58   27   30 1    
    59   31   34 1    
    60   32   35 1    
    61   33   60 1    
    62   34   36 1    
    63   35   37 1    
    64   60   61 1    
    65   61   62 1    
    66   61   66 1    
    67   61   70 1    
    68   62   64 1    
    69   62   65 1    
    70   62   63 1    
    71   66   67 1    
    72   66   68 1    
    73   66   69 1    
    74   70   72 1    
    75   70   71 1    
    76   70   73 1    
@<TRIPOS>SUBSTRUCTURE
     1 UNK         1 GROUP             0       ****    0 ROOT    
@<TRIPOS>MOLECULE
Cpd3-3
73   76    1
SMALL
USER_CHARGES


@<TRIPOS>ATOM
      1 N1         -2.2269    2.9266    0.8155 N.am      1 UNK         0.0000 
      2 O2         -5.2902    3.0532    2.2776 O.2       1 UNK         0.0000 
      3 C3         -4.1752    5.1202   -3.0754 C.ar      1 UNK         0.0000 
      4 N4         -0.0283    0.6143   -0.9136 N.am      1 UNK         0.0000 
      5 O5          0.5589    0.8007   -3.0969 O.2       1 UNK         0.0000 
      6 C6         -2.8407    4.8894   -3.4161 C.ar      1 UNK         0.0000 
      7 N7          1.6856   -1.4769   -0.5172 N.am      1 UNK         0.0000 
      8 O8         -0.6359    1.4521    1.4825 O.2       1 UNK         0.0000 
      9 C9         -4.8618    4.1833   -2.3055 C.ar      1 UNK         0.0000 
     10 O10         3.4015   -0.0321   -0.1274 O.2       1 UNK         0.0000 
     11 C11        -2.1968    3.7323   -2.9833 C.ar      1 UNK         0.0000 
     12 O12        -4.2562   -2.6683   -0.4327 O.3       1 UNK         0.0000 
     13 C13        -4.2138    3.0242   -1.8745 C.ar      1 UNK         0.0000 
     14 C14        -1.6009   -1.7988   -2.7950 C.ar      1 UNK         0.0000 
     15 C15        -0.7719   -3.4713   -1.2776 C.ar      1 UNK         0.0000 
     16 C16        -3.3147    0.0968    1.7827 C.ar      1 UNK         0.0000 
     17 C17        -5.4417    0.5893    0.7471 C.ar      1 UNK         0.0000 
     18 C18        -2.8628   -1.8937   -2.2217 C.ar      1 UNK         0.0000 
     19 C19        -2.0356   -3.5785   -0.6912 C.ar      1 UNK         0.0000 
     20 C20        -3.3013   -1.1479    1.1723 C.ar      1 UNK         0.0000 
     21 C21        -5.4285   -0.6517    0.1125 C.ar      1 UNK         0.0000 
     22 C22         0.8786   -2.1997   -2.7341 C.3       1 UNK         0.0000 
     23 C23        -2.9016    3.0542    2.0965 C.3       1 UNK         0.0000 
     24 C24        -2.1698    1.5296   -1.7451 C.3       1 UNK         0.0000 
     25 C25        -0.5232   -2.5351   -2.2872 C.ar      1 UNK         0.0000 
     26 C26        -2.8746    2.7866   -2.2024 C.ar      1 UNK         0.0000 
     27 C27        -4.3630    0.9927    1.5426 C.ar      1 UNK         0.0000 
     28 C28        -3.0504   -2.7390   -1.1314 C.ar      1 UNK         0.0000 
     29 C29        -4.3326   -1.4926    0.2959 C.ar      1 UNK         0.0000 
     30 C30        -4.2931    2.4016    2.0288 C.2       1 UNK         0.0000 
     31 C31         0.6339    0.2174   -2.0138 C.2       1 UNK         0.0000 
     32 C32        -1.2272    2.0458    0.5843 C.2       1 UNK         0.0000 
     33 C33         2.6745   -0.9375    0.2499 C.2       1 UNK         0.0000 
     34 C34         1.4876   -1.0556   -1.8865 C.3       1 UNK         0.0000 
     35 C35        -0.8981    1.7738   -0.8942 C.3       1 UNK         0.0000 
     36 H36         2.4634   -0.7967   -2.3077 H         1 UNK         0.0000 
     37 H37        -0.3517    2.6358   -1.2992 H         1 UNK         0.0000 
     38 H38        -4.6750    6.0233   -3.4107 H         1 UNK         0.0000 
     39 H39        -2.3017    5.6110   -4.0220 H         1 UNK         0.0000 
     40 H40        -5.9007    4.3502   -2.0388 H         1 UNK         0.0000 
     41 H41        -1.1609    3.5547   -3.2631 H         1 UNK         0.0000 
     42 H42        -4.7523    2.2915   -1.2776 H         1 UNK         0.0000 
     43 H43        -1.4321   -1.1082   -3.6175 H         1 UNK         0.0000 
     44 H44         0.0341   -4.1064   -0.9163 H         1 UNK         0.0000 
     45 H45        -2.4867    0.3744    2.4250 H         1 UNK         0.0000 
     46 H46        -6.2638    1.2790    0.5781 H         1 UNK         0.0000 
     47 H47        -3.6872   -1.2781   -2.5707 H         1 UNK         0.0000 
     48 H48        -2.2174   -4.2585    0.1348 H         1 UNK         0.0000 
     49 H49        -2.4735   -1.8299    1.3333 H         1 UNK         0.0000 
     50 H50        -6.2259   -0.9508   -0.5594 H         1 UNK         0.0000 
     51 H51         1.5433   -3.0645   -2.6517 H         1 UNK         0.0000 
     52 H52         0.8773   -1.8680   -3.7753 H         1 UNK         0.0000 
     53 H53        -3.0374    4.1048    2.3570 H         1 UNK         0.0000 
     54 H54        -2.2821    2.5756    2.8590 H         1 UNK         0.0000 
     55 H55        -2.8580    0.8836   -1.1846 H         1 UNK         0.0000 
     56 H56        -1.8432    0.9750   -2.6284 H         1 UNK         0.0000 
     57 H57        -2.6564    3.3862    0.0211 H         1 UNK         0.0000 
     58 H58         0.1160    0.1323   -0.0336 H         1 UNK         0.0000 
     59 H59         1.1330   -2.2282   -0.1255 H         1 UNK         0.0000 
     60 O60         2.7114   -1.5360    1.4482 O.3       1 UNK         0.0000 
     61 C61         3.6510   -1.0981    2.4831 C.3       1 UNK         0.0000 
     62 C62         5.0859   -1.3137    2.0127 C.3       1 UNK         0.0000 
     63 H63         5.7658   -1.1289    2.8494 H         1 UNK         0.0000 
     64 H64         5.2217   -2.3480    1.6827 H         1 UNK         0.0000 
     65 H65         5.3421   -0.6387    1.1955 H         1 UNK         0.0000 
     66 C66         3.3713    0.3532    2.8607 C.3       1 UNK         0.0000 
     67 H67         3.6172    1.0318    2.0431 H         1 UNK         0.0000 
     68 H68         2.3170    0.4760    3.1266 H         1 UNK         0.0000 
     69 H69         3.9780    0.6170    3.7317 H         1 UNK         0.0000 
     70 C70         3.3233   -2.0270    3.6463 C.3       1 UNK         0.0000 
     71 H71         2.2816   -1.9011    3.9542 H         1 UNK         0.0000 
     72 H72         3.4836   -3.0699    3.3590 H         1 UNK         0.0000 
     73 H73         3.9702   -1.7946    4.4960 H         1 UNK         0.0000 
@<TRIPOS>BOND
     1    1   32 am   BACKBONE|DICT|INTERRES
     2    1   57 1    
     3    1   23 1    
     4    2   30 2    
     5    3   38 1    
     6    3    6 ar   
     7    3    9 ar   
     8    4   31 am   BACKBONE|DICT|INTERRES
     9    4   35 1    
    10    4   58 1    
    11    5   31 2    
    12    6   39 1    
    13    6   11 ar   
    14    7   34 1    
    15    7   33 am   BACKBONE|DICT|INTERRES
    16    7   59 1    
    17    8   32 2    
    18    9   13 ar   
    19    9   40 1    
    20   10   33 2    
    21   11   41 1    
    22   11   26 ar   
    23   12   28 1    
    24   12   29 1    
    25   13   26 ar   
    26   13   42 1    
    27   14   43 1    
    28   14   18 ar   
    29   14   25 ar   
    30   15   25 ar   
    31   15   19 ar   
    32   15   44 1    
    33   16   27 ar   
    34   16   20 ar   
    35   16   45 1    
    36   17   21 ar   
    37   17   27 ar   
    38   17   46 1    
    39   18   47 1    
    40   18   28 ar   
    41   19   28 ar   
    42   19   48 1    
    43   20   49 1    
    44   20   29 ar   
    45   21   29 ar   
    46   21   50 1    
    47   22   51 1    
    48   22   52 1    
    49   22   25 1    
    50   22   34 1    
    51   23   30 1    
    52   23   53 1    
    53   23   54 1    
    54   24   26 1    
    55   24   56 1    
    56   24   35 1    
    57   24   55 1    
    58   27   30 1    
    59   31   34 1    
    60   32   35 1    
    61   33   60 1    
    62   34   36 1    
    63   35   37 1    
    64   60   61 1    
    65   61   62 1    
    66   61   66 1    
    67   61   70 1    
    68   62   64 1    
    69   62   65 1    
    70   62   63 1    
    71   66   67 1    
    72   66   68 1    
    73   66   69 1    
    74   70   72 1    
    75   70   71 1    
    76   70   73 1    
@<TRIPOS>SUBSTRUCTURE
     1 UNK         1 GROUP             0       ****    0 ROOT    
@<TRIPOS>MOLECULE
Cpd3-4
73   76    1
SMALL
USER_CHARGES


@<TRIPOS>ATOM
      1 N1         -2.2271    2.9266    0.8153 N.am      1 UNK         0.0000 
      2 O2         -5.2902    3.0531    2.2784 O.2       1 UNK         0.0000 
      3 C3         -4.1761    5.1195   -3.0756 C.ar      1 UNK         0.0000 
      4 N4         -0.0283    0.6144   -0.9136 N.am      1 UNK         0.0000 
      5 O5          0.5588    0.8004   -3.0970 O.2       1 UNK         0.0000 
      6 C6         -2.8416    4.8892   -3.4161 C.ar      1 UNK         0.0000 
      7 N7          1.6853   -1.4767   -0.5169 N.am      1 UNK         0.0000 
      8 O8         -0.6357    1.4525    1.4823 O.2       1 UNK         0.0000 
      9 C9         -4.8626    4.1822   -2.3059 C.ar      1 UNK         0.0000 
     10 O10         3.4015   -0.0322   -0.1271 O.2       1 UNK         0.0000 
     11 C11        -2.1974    3.7322   -2.9831 C.ar      1 UNK         0.0000 
     12 O12        -4.2563   -2.6681   -0.4328 O.3       1 UNK         0.0000 
     13 C13        -4.2143    3.0233   -1.8748 C.ar      1 UNK         0.0000 
     14 C14        -1.6007   -1.7988   -2.7949 C.ar      1 UNK         0.0000 
     15 C15        -0.7720   -3.4715   -1.2776 C.ar      1 UNK         0.0000 
     16 C16        -5.4419    0.5891    0.7475 C.ar      1 UNK         0.0000 
     17 C17        -3.3145    0.0969    1.7824 C.ar      1 UNK         0.0000 
     18 C18        -2.8626   -1.8937   -2.2218 C.ar      1 UNK         0.0000 
     19 C19        -2.0357   -3.5785   -0.6914 C.ar      1 UNK         0.0000 
     20 C20        -5.4287   -0.6518    0.1129 C.ar      1 UNK         0.0000 
     21 C21        -3.3011   -1.1476    1.1718 C.ar      1 UNK         0.0000 
     22 C22         0.8787   -2.1999   -2.7338 C.3       1 UNK         0.0000 
     23 C23        -2.9017    3.0542    2.0963 C.3       1 UNK         0.0000 
     24 C24        -2.1697    1.5295   -1.7453 C.3       1 UNK         0.0000 
     25 C25        -0.5231   -2.5351   -2.2871 C.ar      1 UNK         0.0000 
     26 C26        -2.8750    2.7862   -2.2026 C.ar      1 UNK         0.0000 
     27 C27        -4.3630    0.9926    1.5427 C.ar      1 UNK         0.0000 
     28 C28        -3.0504   -2.7390   -1.1315 C.ar      1 UNK         0.0000 
     29 C29        -4.3326   -1.4925    0.2959 C.ar      1 UNK         0.0000 
     30 C30        -4.2932    2.4015    2.0289 C.2       1 UNK         0.0000 
     31 C31         0.6339    0.2173   -2.0139 C.2       1 UNK         0.0000 
     32 C32        -1.2272    2.0460    0.5842 C.2       1 UNK         0.0000 
     33 C33         2.6744   -0.9376    0.2501 C.2       1 UNK         0.0000 
     34 C34         1.4875   -1.0557   -1.8863 C.3       1 UNK         0.0000 
     35 C35        -0.8982    1.7738   -0.8944 C.3       1 UNK         0.0000 
     36 H36         2.4635   -0.7968   -2.3073 H         1 UNK         0.0000 
     37 H37        -0.3518    2.6358   -1.2995 H         1 UNK         0.0000 
     38 H38        -4.6762    6.0224   -3.4108 H         1 UNK         0.0000 
     39 H39        -2.3026    5.6111   -4.0217 H         1 UNK         0.0000 
     40 H40        -5.9016    4.3488   -2.0394 H         1 UNK         0.0000 
     41 H41        -1.1614    3.5551   -3.2628 H         1 UNK         0.0000 
     42 H42        -4.7526    2.2904   -1.2780 H         1 UNK         0.0000 
     43 H43        -1.4318   -1.1081   -3.6174 H         1 UNK         0.0000 
     44 H44         0.0339   -4.1066   -0.9162 H         1 UNK         0.0000 
     45 H45        -6.2641    1.2787    0.5789 H         1 UNK         0.0000 
     46 H46        -2.4864    0.3747    2.4245 H         1 UNK         0.0000 
     47 H47        -3.6870   -1.2780   -2.5708 H         1 UNK         0.0000 
     48 H48        -2.2176   -4.2586    0.1347 H         1 UNK         0.0000 
     49 H49        -6.2263   -0.9511   -0.5587 H         1 UNK         0.0000 
     50 H50        -2.4729   -1.8294    1.3325 H         1 UNK         0.0000 
     51 H51         1.5435   -3.0646   -2.6513 H         1 UNK         0.0000 
     52 H52         0.8775   -1.8683   -3.7752 H         1 UNK         0.0000 
     53 H53        -3.0375    4.1049    2.3567 H         1 UNK         0.0000 
     54 H54        -2.2820    2.5757    2.8589 H         1 UNK         0.0000 
     55 H55        -2.8578    0.8832   -1.1849 H         1 UNK         0.0000 
     56 H56        -1.8430    0.9749   -2.6286 H         1 UNK         0.0000 
     57 H57        -2.6567    3.3859    0.0208 H         1 UNK         0.0000 
     58 H58         0.1161    0.1324   -0.0336 H         1 UNK         0.0000 
     59 H59         1.1332   -2.2286   -0.1255 H         1 UNK         0.0000 
     60 O60         2.7114   -1.5362    1.4485 O.3       1 UNK         0.0000 
     61 C61         3.6512   -1.0986    2.4833 C.3       1 UNK         0.0000 
     62 C62         5.0861   -1.3141    2.0124 C.3       1 UNK         0.0000 
     63 H63         5.7660   -1.1295    2.8491 H         1 UNK         0.0000 
     64 H64         5.2218   -2.3483    1.6821 H         1 UNK         0.0000 
     65 H65         5.3420   -0.6389    1.1955 H         1 UNK         0.0000 
     66 C66         3.3717    0.3526    2.8612 C.3       1 UNK         0.0000 
     67 H67         3.6176    1.0314    2.0439 H         1 UNK         0.0000 
     68 H68         2.3173    0.4753    3.1271 H         1 UNK         0.0000 
     69 H69         3.9783    0.6161    3.7323 H         1 UNK         0.0000 
     70 C70         3.3238   -2.0279    3.6461 C.3       1 UNK         0.0000 
     71 H71         2.2823   -1.9019    3.9544 H         1 UNK         0.0000 
     72 H72         3.4839   -3.0707    3.3586 H         1 UNK         0.0000 
     73 H73         3.9709   -1.7957    4.4958 H         1 UNK         0.0000 
@<TRIPOS>BOND
     1    1   23 1    
     2    1   32 am   BACKBONE|DICT|INTERRES
     3    1   57 1    
     4    2   30 2    
     5    3    9 ar   
     6    3    6 ar   
     7    3   38 1    
     8    4   35 1    
     9    4   58 1    
    10    4   31 am   BACKBONE|DICT|INTERRES
    11    5   31 2    
    12    6   11 ar   
    13    6   39 1    
    14    7   33 am   BACKBONE|DICT|INTERRES
    15    7   59 1    
    16    7   34 1    
    17    8   32 2    
    18    9   13 ar   
    19    9   40 1    
    20   10   33 2    
    21   11   26 ar   
    22   11   41 1    
    23   12   29 1    
    24   12   28 1    
    25   13   42 1    
    26   13   26 ar   
    27   14   25 ar   
    28   14   18 ar   
    29   14   43 1    
    30   15   44 1    
    31   15   19 ar   
    32   15   25 ar   
    33   16   45 1    
    34   16   27 ar   
    35   16   20 ar   
    36   17   46 1    
    37   17   21 ar   
    38   17   27 ar   
    39   18   28 ar   
    40   18   47 1    
    41   19   48 1    
    42   19   28 ar   
    43   20   29 ar   
    44   20   49 1    
    45   21   29 ar   
    46   21   50 1    
    47   22   34 1    
    48   22   25 1    
    49   22   51 1    
    50   22   52 1    
    51   23   53 1    
    52   23   30 1    
    53   23   54 1    
    54   24   35 1    
    55   24   55 1    
    56   24   26 1    
    57   24   56 1    
    58   27   30 1    
    59   31   34 1    
    60   32   35 1    
    61   33   60 1    
    62   34   36 1    
    63   35   37 1    
    64   60   61 1    
    65   61   66 1    
    66   61   70 1    
    67   61   62 1    
    68   62   63 1    
    69   62   64 1    
    70   62   65 1    
    71   66   68 1    
    72   66   69 1    
    73   66   67 1    
    74   70   73 1    
    75   70   71 1    
    76   70   72 1    
@<TRIPOS>SUBSTRUCTURE
     1 UNK         1 GROUP             0       ****    0 ROOT    
@<TRIPOS>MOLECULE
Cpd3-5-MEC
73   76    1
SMALL
USER_CHARGES


@<TRIPOS>ATOM
      1 N1         -1.9023    2.4886    1.2509 N.am      1 UNK         0.0000 
      2 O2         -4.6018    2.4500    3.3983 O.2       1 UNK         0.0000 
      3 C3          1.1379    4.8190    3.5906 C.ar      1 UNK         0.0000 
      4 N4         -0.1383    1.0256   -1.4904 N.am      1 UNK         0.0000 
      5 O5          1.7512   -0.1421   -1.0444 O.2       1 UNK         0.0000 
      6 C6          1.7233    3.5646    3.4122 C.ar      1 UNK         0.0000 
      7 N7          1.9491   -0.1091   -3.8999 N.am      1 UNK         0.0000 
      8 O8         -2.1447    2.7725   -0.9944 O.2       1 UNK         0.0000 
      9 C9          0.5213    5.4537    2.5121 C.ar      1 UNK         0.0000 
     10 O10         0.9988   -0.2755   -5.9655 O.2       1 UNK         0.0000 
     11 C11         1.6875    2.9490    2.1615 C.ar      1 UNK         0.0000 
     12 O12        -4.2049   -2.8088   -0.2464 O.3       1 UNK         0.0000 
     13 C13         0.4846    4.8330    1.2635 C.ar      1 UNK         0.0000 
     14 C14        -1.8130   -2.6245   -3.0279 C.ar      1 UNK         0.0000 
     15 C15        -0.6163   -2.5458   -0.9399 C.ar      1 UNK         0.0000 
     16 C16        -4.2838    0.8157    0.2212 C.ar      1 UNK         0.0000 
     17 C17        -4.5675   -0.2709    2.3645 C.ar      1 UNK         0.0000 
     18 C18        -3.0154   -2.8126   -2.3438 C.ar      1 UNK         0.0000 
     19 C19        -1.8065   -2.7275   -0.2452 C.ar      1 UNK         0.0000 
     20 C20        -4.3153   -0.4156   -0.4107 C.ar      1 UNK         0.0000 
     21 C21        -4.5729   -1.5170    1.7396 C.ar      1 UNK         0.0000 
     22 C22         0.6482   -2.0464   -3.0616 C.3       1 UNK         0.0000 
     23 C23        -3.1291    3.1535    1.6512 C.3       1 UNK         0.0000 
     24 C24         0.9638    2.8642   -0.2512 C.3       1 UNK         0.0000 
     25 C25        -0.6100   -2.4502   -2.3372 C.ar      1 UNK         0.0000 
     26 C26         1.0652    3.5749    1.0750 C.ar      1 UNK         0.0000 
     27 C27        -4.3676    0.8935    1.6166 C.ar      1 UNK         0.0000 
     28 C28        -3.0014   -2.8157   -0.9553 C.ar      1 UNK         0.0000 
     29 C29        -4.3893   -1.5774    0.3610 C.ar      1 UNK         0.0000 
     30 C30        -4.1147    2.1820    2.3156 C.2       1 UNK         0.0000 
     31 C31         0.8277    0.1427   -1.8077 C.2       1 UNK         0.0000 
     32 C32        -1.4927    2.3762   -0.0293 C.2       1 UNK         0.0000 
     33 C33         1.9834   -0.1119   -5.2605 C.2       1 UNK         0.0000 
     34 C34         0.7496   -0.5101   -3.1892 C.3       1 UNK         0.0000 
     35 C35        -0.1142    1.7505   -0.2332 C.3       1 UNK         0.0000 
     36 H36        -0.1111   -0.1330   -3.7489 H         1 UNK         0.0000 
     37 H37         0.1133    1.0409    0.5697 H         1 UNK         0.0000 
     38 H38         1.1655    5.2999    4.5632 H         1 UNK         0.0000 
     39 H39         2.2100    3.0672    4.2454 H         1 UNK         0.0000 
     40 H40         0.0667    6.4309    2.6426 H         1 UNK         0.0000 
     41 H41         2.1481    1.9727    2.0246 H         1 UNK         0.0000 
     42 H42        -0.0056    5.3261    0.4271 H         1 UNK         0.0000 
     43 H43        -1.8196   -2.5745   -4.1139 H         1 UNK         0.0000 
     44 H44         0.3160   -2.4362   -0.3920 H         1 UNK         0.0000 
     45 H45        -4.1557    1.7120   -0.3770 H         1 UNK         0.0000 
     46 H46        -4.6448   -0.2018    3.4453 H         1 UNK         0.0000 
     47 H47        -3.9594   -2.8964   -2.8728 H         1 UNK         0.0000 
     48 H48        -1.8248   -2.7501    0.8404 H         1 UNK         0.0000 
     49 H49        -4.2107   -0.4869   -1.4880 H         1 UNK         0.0000 
     50 H50        -4.6460   -2.4363    2.3109 H         1 UNK         0.0000 
     51 H51         1.5361   -2.3985   -2.5268 H         1 UNK         0.0000 
     52 H52         0.6688   -2.4588   -4.0749 H         1 UNK         0.0000 
     53 H53        -3.5791    3.5921    0.7556 H         1 UNK         0.0000 
     54 H54        -2.9159    3.9523    2.3650 H         1 UNK         0.0000 
     55 H55         0.7125    3.5673   -1.0520 H         1 UNK         0.0000 
     56 H56         1.9120    2.3811   -0.5044 H         1 UNK         0.0000 
     57 H57        -1.2761    2.1738    1.9818 H         1 UNK         0.0000 
     58 H58        -0.8461    1.2940   -2.1649 H         1 UNK         0.0000 
     59 H59         2.8291   -0.1351   -3.3995 H         1 UNK         0.0000 
     60 O60         3.2335    0.1115   -5.6929 O.3       1 UNK         0.0000 
     61 C61         3.5366    0.1932   -7.1225 C.3       1 UNK         0.0000 
     62 C62         5.0375    0.4588   -7.1312 C.3       1 UNK         0.0000 
     63 H63         5.3909    0.5409   -8.1622 H         1 UNK         0.0000 
     64 H64         5.2632    1.3924   -6.6082 H         1 UNK         0.0000 
     65 H65         5.5730   -0.3590   -6.6411 H         1 UNK         0.0000 
     66 C66         3.2250   -1.1370   -7.8016 C.3       1 UNK         0.0000 
     67 H67         3.7291   -1.9541   -7.2766 H         1 UNK         0.0000 
     68 H68         2.1523   -1.3311   -7.8234 H         1 UNK         0.0000 
     69 H69         3.5989   -1.1078   -8.8291 H         1 UNK         0.0000 
     70 C70         2.7834    1.3606   -7.7529 C.3       1 UNK         0.0000 
     71 H71         1.7092    1.1751   -7.7770 H         1 UNK         0.0000 
     72 H72         2.9787    2.2800   -7.1926 H         1 UNK         0.0000 
     73 H73         3.1398    1.5017   -8.7774 H         1 UNK         0.0000 
@<TRIPOS>BOND
     1    1   57 1    
     2    1   23 1    
     3    1   32 am   BACKBONE|DICT|INTERRES
     4    2   30 2    
     5    3   38 1    
     6    3    6 ar   
     7    3    9 ar   
     8    4   35 1    
     9    4   31 am   BACKBONE|DICT|INTERRES
    10    4   58 1    
    11    5   31 2    
    12    6   39 1    
    13    6   11 ar   
    14    7   59 1    
    15    7   33 am   BACKBONE|DICT|INTERRES
    16    7   34 1    
    17    8   32 2    
    18    9   13 ar   
    19    9   40 1    
    20   10   33 2    
    21   11   41 1    
    22   11   26 ar   
    23   12   28 1    
    24   12   29 1    
    25   13   26 ar   
    26   13   42 1    
    27   14   25 ar   
    28   14   18 ar   
    29   14   43 1    
    30   15   44 1    
    31   15   19 ar   
    32   15   25 ar   
    33   16   20 ar   
    34   16   27 ar   
    35   16   45 1    
    36   17   21 ar   
    37   17   46 1    
    38   17   27 ar   
    39   18   28 ar   
    40   18   47 1    
    41   19   48 1    
    42   19   28 ar   
    43   20   29 ar   
    44   20   49 1    
    45   21   50 1    
    46   21   29 ar   
    47   22   51 1    
    48   22   25 1    
    49   22   34 1    
    50   22   52 1    
    51   23   54 1    
    52   23   30 1    
    53   23   53 1    
    54   24   35 1    
    55   24   26 1    
    56   24   56 1    
    57   24   55 1    
    58   27   30 1    
    59   31   34 1    
    60   32   35 1    
    61   33   60 1    
    62   34   36 1    
    63   35   37 1    
    64   60   61 1    
    65   61   66 1    
    66   61   62 1    
    67   61   70 1    
    68   62   65 1    
    69   62   63 1    
    70   62   64 1    
    71   66   67 1    
    72   66   68 1    
    73   66   69 1    
    74   70   71 1    
    75   70   72 1    
    76   70   73 1    
@<TRIPOS>SUBSTRUCTURE
     1 UNK         1 GROUP             0       ****    0 ROOT    
@<TRIPOS>MOLECULE
Cpd3-6
73   76    1
SMALL
USER_CHARGES


@<TRIPOS>ATOM
      1 N1         -1.7698    1.9666    1.0506 N.am      1 UNK         0.0000 
      2 O2         -4.8808    2.9820    2.1397 O.2       1 UNK         0.0000 
      3 C3         -4.3601    5.2993   -2.8756 C.ar      1 UNK         0.0000 
      4 N4         -0.0077    0.9008   -0.9200 N.am      1 UNK         0.0000 
      5 O5          0.7811    0.7270   -3.0406 O.2       1 UNK         0.0000 
      6 C6         -3.2600    4.9733   -3.6708 C.ar      1 UNK         0.0000 
      7 N7          1.6568   -1.3537   -0.1593 N.am      1 UNK         0.0000 
      8 O8         -1.2179    4.0032    0.2021 O.2       1 UNK         0.0000 
      9 C9         -4.7229    4.4612   -1.8213 C.ar      1 UNK         0.0000 
     10 O10        -0.3508   -1.0712    0.9479 O.2       1 UNK         0.0000 
     11 C11        -2.5265    3.8166   -3.4103 C.ar      1 UNK         0.0000 
     12 O12        -4.4322   -2.8528   -0.4872 O.3       1 UNK         0.0000 
     13 C13        -3.9857    3.3054   -1.5663 C.ar      1 UNK         0.0000 
     14 C14        -1.6152   -1.7869   -2.5704 C.ar      1 UNK         0.0000 
     15 C15        -0.8697   -3.5352   -1.0938 C.ar      1 UNK         0.0000 
     16 C16        -5.3421    0.5065    0.6519 C.ar      1 UNK         0.0000 
     17 C17        -3.5003   -0.3315    1.9781 C.ar      1 UNK         0.0000 
     18 C18        -2.9161   -1.9383   -2.1064 C.ar      1 UNK         0.0000 
     19 C19        -2.1731   -3.7045   -0.6230 C.ar      1 UNK         0.0000 
     20 C20        -5.4374   -0.7205   -0.0052 C.ar      1 UNK         0.0000 
     21 C21        -3.6101   -1.5609    1.3529 C.ar      1 UNK         0.0000 
     22 C22         0.8542   -2.2041   -2.3917 C.3       1 UNK         0.0000 
     23 C23        -2.5361    2.4647    2.1847 C.3       1 UNK         0.0000 
     24 C24        -2.0517    1.7518   -2.0400 C.3       1 UNK         0.0000 
     25 C25        -0.5674   -2.5420   -2.0291 C.ar      1 UNK         0.0000 
     26 C26        -2.8809    2.9705   -2.3541 C.ar      1 UNK         0.0000 
     27 C27        -4.3327    0.7298    1.5941 C.ar      1 UNK         0.0000 
     28 C28        -3.1719   -2.8643   -1.0984 C.ar      1 UNK         0.0000 
     29 C29        -4.5215   -1.7196    0.3086 C.ar      1 UNK         0.0000 
     30 C30        -4.0255    2.1260    2.0203 C.2       1 UNK         0.0000 
     31 C31         0.6893    0.2875   -1.8939 C.2       1 UNK         0.0000 
     32 C32        -1.2503    2.7832    0.0970 C.2       1 UNK         0.0000 
     33 C33         0.8000   -1.5024    0.8859 C.2       1 UNK         0.0000 
     34 C34         1.4262   -1.0223   -1.5663 C.3       1 UNK         0.0000 
     35 C35        -0.7981    2.0916   -1.1915 C.3       1 UNK         0.0000 
     36 H36         2.4291   -0.8360   -1.9598 H         1 UNK         0.0000 
     37 H37        -0.1789    2.8100   -1.7341 H         1 UNK         0.0000 
     38 H38        -4.9320    6.1992   -3.0786 H         1 UNK         0.0000 
     39 H39        -2.9746    5.6193   -4.4954 H         1 UNK         0.0000 
     40 H40        -5.5781    4.7047   -1.1981 H         1 UNK         0.0000 
     41 H41        -1.6708    3.5647   -4.0328 H         1 UNK         0.0000 
     42 H42        -4.2703    2.6509   -0.7457 H         1 UNK         0.0000 
     43 H43        -1.3993   -1.0473   -3.3377 H         1 UNK         0.0000 
     44 H44        -0.0722   -4.1542   -0.6892 H         1 UNK         0.0000 
     45 H45        -6.0010    1.3245    0.3749 H         1 UNK         0.0000 
     46 H46        -2.7370   -0.1932    2.7407 H         1 UNK         0.0000 
     47 H47        -3.7227   -1.3135   -2.4796 H         1 UNK         0.0000 
     48 H48        -2.4030   -4.4351    0.1464 H         1 UNK         0.0000 
     49 H49        -6.1540   -0.8777   -0.8044 H         1 UNK         0.0000 
     50 H50        -2.9335   -2.3715    1.5960 H         1 UNK         0.0000 
     51 H51         1.5131   -3.0618   -2.2286 H         1 UNK         0.0000 
     52 H52         0.9249   -1.9210   -3.4461 H         1 UNK         0.0000 
     53 H53        -2.4312    3.5486    2.2211 H         1 UNK         0.0000 
     54 H54        -2.1557    2.0425    3.1213 H         1 UNK         0.0000 
     55 H55        -2.6482    1.0088   -1.4943 H         1 UNK         0.0000 
     56 H56        -1.6922    1.2850   -2.9612 H         1 UNK         0.0000 
     57 H57        -1.7805    0.9653    0.8898 H         1 UNK         0.0000 
     58 H58        -0.1899    0.3470   -0.0827 H         1 UNK         0.0000 
     59 H59         2.5740   -1.7388    0.0257 H         1 UNK         0.0000 
     60 O60         1.4186   -2.1561    1.8752 O.3       1 UNK         0.0000 
     61 C61         0.8681   -2.1931    3.2341 C.3       1 UNK         0.0000 
     62 C62        -0.4538   -2.9518    3.2479 C.3       1 UNK         0.0000 
     63 H63        -0.7343   -3.1635    4.2835 H         1 UNK         0.0000 
     64 H64        -1.2433   -2.3632    2.7829 H         1 UNK         0.0000 
     65 H65        -0.3517   -3.9021    2.7147 H         1 UNK         0.0000 
     66 C66         1.9359   -2.9614    4.0033 C.3       1 UNK         0.0000 
     67 H67         2.0515   -3.9684    3.5929 H         1 UNK         0.0000 
     68 H68         2.8966   -2.4427    3.9452 H         1 UNK         0.0000 
     69 H69         1.6440   -3.0427    5.0533 H         1 UNK         0.0000 
     70 C70         0.7308   -0.7727    3.7719 C.3       1 UNK         0.0000 
     71 H71         1.6908   -0.2513    3.7141 H         1 UNK         0.0000 
     72 H72        -0.0194   -0.2061    3.2164 H         1 UNK         0.0000 
     73 H73         0.4260   -0.8175    4.8212 H         1 UNK         0.0000 
@<TRIPOS>BOND
     1    1   57 1    
     2    1   23 1    
     3    1   32 am   BACKBONE|DICT|INTERRES
     4    2   30 2    
     5    3    9 ar   
     6    3    6 ar   
     7    3   38 1    
     8    4   58 1    
     9    4   31 am   BACKBONE|DICT|INTERRES
    10    4   35 1    
    11    5   31 2    
    12    6   11 ar   
    13    6   39 1    
    14    7   33 am   BACKBONE|DICT|INTERRES
    15    7   34 1    
    16    7   59 1    
    17    8   32 2    
    18    9   40 1    
    19    9   13 ar   
    20   10   33 2    
    21   11   26 ar   
    22   11   41 1    
    23   12   28 1    
    24   12   29 1    
    25   13   42 1    
    26   13   26 ar   
    27   14   18 ar   
    28   14   25 ar   
    29   14   43 1    
    30   15   19 ar   
    31   15   25 ar   
    32   15   44 1    
    33   16   45 1    
    34   16   20 ar   
    35   16   27 ar   
    36   17   27 ar   
    37   17   21 ar   
    38   17   46 1    
    39   18   28 ar   
    40   18   47 1    
    41   19   48 1    
    42   19   28 ar   
    43   20   49 1    
    44   20   29 ar   
    45   21   29 ar   
    46   21   50 1    
    47   22   51 1    
    48   22   52 1    
    49   22   25 1    
    50   22   34 1    
    51   23   30 1    
    52   23   53 1    
    53   23   54 1    
    54   24   56 1    
    55   24   55 1    
    56   24   26 1    
    57   24   35 1    
    58   27   30 1    
    59   31   34 1    
    60   32   35 1    
    61   33   60 1    
    62   34   36 1    
    63   35   37 1    
    64   60   61 1    
    65   61   62 1    
    66   61   66 1    
    67   61   70 1    
    68   62   64 1    
    69   62   65 1    
    70   62   63 1    
    71   66   67 1    
    72   66   68 1    
    73   66   69 1    
    74   70   72 1    
    75   70   71 1    
    76   70   73 1    
@<TRIPOS>SUBSTRUCTURE
     1 UNK         1 GROUP             0       ****    0 ROOT    
@<TRIPOS>MOLECULE
Cpd3-7
73   76    1
SMALL
USER_CHARGES


@<TRIPOS>ATOM
      1 N1         -1.8682    2.5889    1.2331 N.am      1 UNK         0.0000 
      2 O2         -4.5442    2.3819    3.4030 O.2       1 UNK         0.0000 
      3 C3          4.9557    1.8212   -0.9984 C.ar      1 UNK         0.0000 
      4 N4         -0.0453    1.2221   -1.5083 N.am      1 UNK         0.0000 
      5 O5          1.4419   -0.3565   -0.8162 O.2       1 UNK         0.0000 
      6 C6          4.1394    2.1469   -2.0816 C.ar      1 UNK         0.0000 
      7 N7          1.7847   -0.0275   -3.8818 N.am      1 UNK         0.0000 
      8 O8         -2.1303    2.9293   -1.0017 O.2       1 UNK         0.0000 
      9 C9          4.4737    1.9775    0.3028 C.ar      1 UNK         0.0000 
     10 O10         0.7054    1.8285   -4.6472 O.2       1 UNK         0.0000 
     11 C11         2.8460    2.6207   -1.8610 C.ar      1 UNK         0.0000 
     12 O12        -4.2330   -2.8356   -0.2904 O.3       1 UNK         0.0000 
     13 C13         3.1783    2.4445    0.5171 C.ar      1 UNK         0.0000 
     14 C14        -1.8167   -2.6144   -3.0441 C.ar      1 UNK         0.0000 
     15 C15        -0.6352   -2.6851   -0.9475 C.ar      1 UNK         0.0000 
     16 C16        -4.1719    0.7906    0.2025 C.ar      1 UNK         0.0000 
     17 C17        -4.5523   -0.2996    2.3284 C.ar      1 UNK         0.0000 
     18 C18        -3.0290   -2.8126   -2.3814 C.ar      1 UNK         0.0000 
     19 C19        -1.8361   -2.8764   -0.2733 C.ar      1 UNK         0.0000 
     20 C20        -4.2295   -0.4353   -0.4389 C.ar      1 UNK         0.0000 
     21 C21        -4.5862   -1.5402    1.6949 C.ar      1 UNK         0.0000 
     22 C22         0.6406   -2.0294   -3.0273 C.3       1 UNK         0.0000 
     23 C23        -3.1304    3.1731    1.6510 C.3       1 UNK         0.0000 
     24 C24         0.9241    3.1972   -0.3377 C.3       1 UNK         0.0000 
     25 C25        -0.6173   -2.4955   -2.3342 C.ar      1 UNK         0.0000 
     26 C26         2.3490    2.7635   -0.5628 C.ar      1 UNK         0.0000 
     27 C27        -4.2954    0.8639    1.5951 C.ar      1 UNK         0.0000 
     28 C28        -3.0268   -2.8814   -0.9942 C.ar      1 UNK         0.0000 
     29 C29        -4.3723   -1.5994    0.3199 C.ar      1 UNK         0.0000 
     30 C30        -4.0631    2.1474    2.3091 C.2       1 UNK         0.0000 
     31 C31         0.7221    0.1226   -1.6880 C.2       1 UNK         0.0000 
     32 C32        -1.4572    2.5326   -0.0529 C.2       1 UNK         0.0000 
     33 C33         1.7180    1.1462   -4.5651 C.2       1 UNK         0.0000 
     34 C34         0.6565   -0.4953   -3.0976 C.3       1 UNK         0.0000 
     35 C35        -0.0459    1.9904   -0.2785 C.3       1 UNK         0.0000 
     36 H36        -0.2469   -0.1479   -3.6068 H         1 UNK         0.0000 
     37 H37         0.2546    1.3160    0.5284 H         1 UNK         0.0000 
     38 H38         5.9631    1.4532   -1.1660 H         1 UNK         0.0000 
     39 H39         4.5020    2.0276   -3.0991 H         1 UNK         0.0000 
     40 H40         5.1076    1.7343    1.1500 H         1 UNK         0.0000 
     41 H41         2.2069    2.8833   -2.7015 H         1 UNK         0.0000 
     42 H42         2.8034    2.5580    1.5318 H         1 UNK         0.0000 
     43 H43        -1.8143   -2.4998   -4.1251 H         1 UNK         0.0000 
     44 H44         0.2932   -2.6205   -0.3888 H         1 UNK         0.0000 
     45 H45        -4.0021    1.6856   -0.3878 H         1 UNK         0.0000 
     46 H46        -4.6604   -0.2337    3.4066 H         1 UNK         0.0000 
     47 H47        -3.9701   -2.8401   -2.9214 H         1 UNK         0.0000 
     48 H48        -1.8656   -2.9549    0.8095 H         1 UNK         0.0000 
     49 H49        -4.0985   -0.5012   -1.5134 H         1 UNK         0.0000 
     50 H50        -4.7103   -2.4594    2.2572 H         1 UNK         0.0000 
     51 H51         1.5286   -2.3708   -2.4863 H         1 UNK         0.0000 
     52 H52         0.6885   -2.4105   -4.0516 H         1 UNK         0.0000 
     53 H53        -3.6083    3.5990    0.7638 H         1 UNK         0.0000 
     54 H54        -2.9616    3.9722    2.3757 H         1 UNK         0.0000 
     55 H55         0.8377    3.7527    0.6024 H         1 UNK         0.0000 
     56 H56         0.5914    3.8552   -1.1483 H         1 UNK         0.0000 
     57 H57        -1.2491    2.2374    1.9523 H         1 UNK         0.0000 
     58 H58        -0.5496    1.6104   -2.2987 H         1 UNK         0.0000 
     59 H59         2.6964   -0.4446   -3.7429 H         1 UNK         0.0000 
     60 O60         2.9028    1.4291   -5.1257 O.3       1 UNK         0.0000 
     61 C61         3.0588    2.5566   -6.0491 C.3       1 UNK         0.0000 
     62 C62         4.5116    2.4254   -6.4913 C.3       1 UNK         0.0000 
     63 H63         4.7596    3.2337   -7.1840 H         1 UNK         0.0000 
     64 H64         5.1815    2.4876   -5.6289 H         1 UNK         0.0000 
     65 H65         4.6733    1.4686   -6.9952 H         1 UNK         0.0000 
     66 C66         2.1194    2.3905   -7.2395 C.3       1 UNK         0.0000 
     67 H67         2.2467    1.3984   -7.6831 H         1 UNK         0.0000 
     68 H68         1.0773    2.5234   -6.9472 H         1 UNK         0.0000 
     69 H69         2.3707    3.1389   -7.9965 H         1 UNK         0.0000 
     70 C70         2.8403    3.8763   -5.3166 C.3       1 UNK         0.0000 
     71 H71         1.8110    3.9720   -4.9675 H         1 UNK         0.0000 
     72 H72         3.5218    3.9559   -4.4637 H         1 UNK         0.0000 
     73 H73         3.0566    4.7010   -6.0020 H         1 UNK         0.0000 
@<TRIPOS>BOND
     1    1   57 1    
     2    1   23 1    
     3    1   32 am   BACKBONE|DICT|INTERRES
     4    2   30 2    
     5    3    9 ar   
     6    3   38 1    
     7    3    6 ar   
     8    4   35 1    
     9    4   31 am   BACKBONE|DICT|INTERRES
    10    4   58 1    
    11    5   31 2    
    12    6   11 ar   
    13    6   39 1    
    14    7   34 1    
    15    7   59 1    
    16    7   33 am   BACKBONE|DICT|INTERRES
    17    8   32 2    
    18    9   40 1    
    19    9   13 ar   
    20   10   33 2    
    21   11   26 ar   
    22   11   41 1    
    23   12   28 1    
    24   12   29 1    
    25   13   42 1    
    26   13   26 ar   
    27   14   25 ar   
    28   14   18 ar   
    29   14   43 1    
    30   15   44 1    
    31   15   19 ar   
    32   15   25 ar   
    33   16   20 ar   
    34   16   27 ar   
    35   16   45 1    
    36   17   21 ar   
    37   17   46 1    
    38   17   27 ar   
    39   18   28 ar   
    40   18   47 1    
    41   19   48 1    
    42   19   28 ar   
    43   20   29 ar   
    44   20   49 1    
    45   21   50 1    
    46   21   29 ar   
    47   22   51 1    
    48   22   25 1    
    49   22   34 1    
    50   22   52 1    
    51   23   54 1    
    52   23   30 1    
    53   23   53 1    
    54   24   35 1    
    55   24   55 1    
    56   24   26 1    
    57   24   56 1    
    58   27   30 1    
    59   31   34 1    
    60   32   35 1    
    61   33   60 1    
    62   34   36 1    
    63   35   37 1    
    64   60   61 1    
    65   61   62 1    
    66   61   66 1    
    67   61   70 1    
    68   62   65 1    
    69   62   64 1    
    70   62   63 1    
    71   66   67 1    
    72   66   68 1    
    73   66   69 1    
    74   70   72 1    
    75   70   71 1    
    76   70   73 1    
@<TRIPOS>SUBSTRUCTURE
     1 UNK         1 GROUP             0       ****    0 ROOT    
@<TRIPOS>MOLECULE
Cpd3-8
73   76    1
SMALL
USER_CHARGES


@<TRIPOS>ATOM
      1 N1         -1.4925    2.4460    1.6214 N.am      1 UNK         0.0000 
      2 O2         -4.9952    3.0764    1.5441 O.2       1 UNK         0.0000 
      3 C3          0.0919    7.3575    0.2864 C.ar      1 UNK         0.0000 
      4 N4          0.6579    0.9764   -0.4180 N.am      1 UNK         0.0000 
      5 O5         -0.0442    0.7391   -2.5726 O.2       1 UNK         0.0000 
      6 C6         -0.9642    6.7664   -0.4064 C.ar      1 UNK         0.0000 
      7 N7          1.6924   -1.6256   -0.4152 N.am      1 UNK         0.0000 
      8 O8         -2.1840    2.5346   -0.5282 O.2       1 UNK         0.0000 
      9 C9          1.2823    6.6504    0.4645 C.ar      1 UNK         0.0000 
     10 O10        -0.2765   -1.5388    0.7605 O.2       1 UNK         0.0000 
     11 C11        -0.8319    5.4742   -0.9170 C.ar      1 UNK         0.0000 
     12 O12        -4.3117   -2.9528   -0.2702 O.3       1 UNK         0.0000 
     13 C13         1.4099    5.3597   -0.0464 C.ar      1 UNK         0.0000 
     14 C14        -1.8189   -1.7453   -2.6517 C.ar      1 UNK         0.0000 
     15 C15        -0.8811   -3.5826   -1.4151 C.ar      1 UNK         0.0000 
     16 C16        -3.2204   -0.0750    1.7043 C.ar      1 UNK         0.0000 
     17 C17        -5.2986    0.4616    0.5882 C.ar      1 UNK         0.0000 
     18 C18        -3.0522   -1.9682   -2.0588 C.ar      1 UNK         0.0000 
     19 C19        -2.1161   -3.8136   -0.8019 C.ar      1 UNK         0.0000 
     20 C20        -3.3157   -1.3803    1.2448 C.ar      1 UNK         0.0000 
     21 C21        -5.3973   -0.8427    0.1157 C.ar      1 UNK         0.0000 
     22 C22         0.6731   -2.0287   -2.6857 C.3       1 UNK         0.0000 
     23 C23        -2.7457    2.8942    2.2079 C.3       1 UNK         0.0000 
     24 C24         0.4932    3.3413   -1.2592 C.3       1 UNK         0.0000 
     25 C25        -0.6976   -2.4949   -2.2724 C.ar      1 UNK         0.0000 
     26 C26         0.3563    4.7565   -0.7438 C.ar      1 UNK         0.0000 
     27 C27        -4.1877    0.8685    1.3391 C.ar      1 UNK         0.0000 
     28 C28        -3.1653   -2.9478   -1.0735 C.ar      1 UNK         0.0000 
     29 C29        -4.3662   -1.7349    0.3995 C.ar      1 UNK         0.0000 
     30 C30        -4.0506    2.3128    1.6597 C.2       1 UNK         0.0000 
     31 C31         0.5332    0.3025   -1.5821 C.2       1 UNK         0.0000 
     32 C32        -1.2718    2.4328    0.2849 C.2       1 UNK         0.0000 
     33 C33         0.8566   -1.9612    0.6148 C.2       1 UNK         0.0000 
     34 C34         1.3080   -1.0284   -1.6864 C.3       1 UNK         0.0000 
     35 C35         0.2154    2.3363   -0.1307 C.3       1 UNK         0.0000 
     36 H36         2.2572   -0.7149   -2.1381 H         1 UNK         0.0000 
     37 H37         0.8155    2.6434    0.7318 H         1 UNK         0.0000 
     38 H38        -0.0095    8.3631    0.6821 H         1 UNK         0.0000 
     39 H39        -1.8923    7.3109   -0.5516 H         1 UNK         0.0000 
     40 H40         2.1114    7.1049    0.9980 H         1 UNK         0.0000 
     41 H41        -1.6567    5.0113   -1.4517 H         1 UNK         0.0000 
     42 H42         2.3411    4.8142    0.0909 H         1 UNK         0.0000 
     43 H43        -1.7002   -0.9318   -3.3596 H         1 UNK         0.0000 
     44 H44        -0.0321   -4.2098   -1.1499 H         1 UNK         0.0000 
     45 H45        -2.3655    0.2097    2.3082 H         1 UNK         0.0000 
     46 H46        -6.0525    1.1969    0.3264 H         1 UNK         0.0000 
     47 H47        -3.9033   -1.3339   -2.2868 H         1 UNK         0.0000 
     48 H48        -2.2396   -4.5968   -0.0605 H         1 UNK         0.0000 
     49 H49        -2.5189   -2.0874    1.4438 H         1 UNK         0.0000 
     50 H50        -6.2109   -1.1504   -0.5328 H         1 UNK         0.0000 
     51 H51         1.3674   -2.8708   -2.7687 H         1 UNK         0.0000 
     52 H52         0.6285   -1.5331   -3.6588 H         1 UNK         0.0000 
     53 H53        -2.8479    3.9795    2.1065 H         1 UNK         0.0000 
     54 H54        -2.7105    2.6588    3.2765 H         1 UNK         0.0000 
     55 H55        -0.1969    3.1584   -2.0830 H         1 UNK         0.0000 
     56 H56         1.5122    3.1644   -1.6183 H         1 UNK         0.0000 
     57 H57        -0.6932    2.4139    2.2393 H         1 UNK         0.0000 
     58 H58         1.1056    0.4869    0.3432 H         1 UNK         0.0000 
     59 H59         2.5933   -2.0850   -0.3967 H         1 UNK         0.0000 
     60 O60         1.5102   -2.7741    1.4626 O.3       1 UNK         0.0000 
     61 C61         0.8882   -3.2381    2.7025 C.3       1 UNK         0.0000 
     62 C62        -0.2847   -4.1527    2.3689 C.3       1 UNK         0.0000 
     63 H63        -0.6876   -4.5779    3.2926 H         1 UNK         0.0000 
     64 H64        -1.0763   -3.6011    1.8606 H         1 UNK         0.0000 
     65 H65         0.0465   -4.9730    1.7241 H         1 UNK         0.0000 
     66 C66         2.0117   -4.0245    3.3678 C.3       1 UNK         0.0000 
     67 H67         2.3481   -4.8348    2.7152 H         1 UNK         0.0000 
     68 H68         2.8603   -3.3698    3.5848 H         1 UNK         0.0000 
     69 H69         1.6534   -4.4563    4.3058 H         1 UNK         0.0000 
     70 C70         0.4745   -2.0569    3.5762 C.3       1 UNK         0.0000 
     71 H71         1.3126   -1.3624    3.6913 H         1 UNK         0.0000 
     72 H72        -0.3777   -1.5235    3.1535 H         1 UNK         0.0000 
     73 H73         0.2011   -2.4303    4.5672 H         1 UNK         0.0000 
@<TRIPOS>BOND
     1    1   32 am   BACKBONE|DICT|INTERRES
     2    1   23 1    
     3    1   57 1    
     4    2   30 2    
     5    3    6 ar   
     6    3    9 ar   
     7    3   38 1    
     8    4   31 am   BACKBONE|DICT|INTERRES
     9    4   35 1    
    10    4   58 1    
    11    5   31 2    
    12    6   39 1    
    13    6   11 ar   
    14    7   34 1    
    15    7   33 am   BACKBONE|DICT|INTERRES
    16    7   59 1    
    17    8   32 2    
    18    9   13 ar   
    19    9   40 1    
    20   10   33 2    
    21   11   41 1    
    22   11   26 ar   
    23   12   28 1    
    24   12   29 1    
    25   13   26 ar   
    26   13   42 1    
    27   14   43 1    
    28   14   18 ar   
    29   14   25 ar   
    30   15   25 ar   
    31   15   19 ar   
    32   15   44 1    
    33   16   27 ar   
    34   16   20 ar   
    35   16   45 1    
    36   17   46 1    
    37   17   21 ar   
    38   17   27 ar   
    39   18   47 1    
    40   18   28 ar   
    41   19   28 ar   
    42   19   48 1    
    43   20   29 ar   
    44   20   49 1    
    45   21   50 1    
    46   21   29 ar   
    47   22   51 1    
    48   22   52 1    
    49   22   25 1    
    50   22   34 1    
    51   23   53 1    
    52   23   30 1    
    53   23   54 1    
    54   24   56 1    
    55   24   55 1    
    56   24   26 1    
    57   24   35 1    
    58   27   30 1    
    59   31   34 1    
    60   32   35 1    
    61   33   60 1    
    62   34   36 1    
    63   35   37 1    
    64   60   61 1    
    65   61   62 1    
    66   61   66 1    
    67   61   70 1    
    68   62   64 1    
    69   62   65 1    
    70   62   63 1    
    71   66   67 1    
    72   66   68 1    
    73   66   69 1    
    74   70   72 1    
    75   70   71 1    
    76   70   73 1    
@<TRIPOS>SUBSTRUCTURE
     1 UNK         1 GROUP             0       ****    0 ROOT    
@<TRIPOS>MOLECULE
Cpd3-9
73   76    1
SMALL
USER_CHARGES


@<TRIPOS>ATOM
      1 N1         -1.9753    2.9279    0.9962 N.am      1 UNK         0.0000 
      2 O2         -3.9430    2.3282    3.3977 O.2       1 UNK         0.0000 
      3 C3         -0.7604    7.2375   -0.1324 C.ar      1 UNK         0.0000 
      4 N4          0.4795    0.9144   -0.4955 N.am      1 UNK         0.0000 
      5 O5          0.4497    0.7110   -2.7792 O.2       1 UNK         0.0000 
      6 C6         -1.5517    6.5225   -1.0316 C.ar      1 UNK         0.0000 
      7 N7          1.4425   -1.5764   -0.1670 N.am      1 UNK         0.0000 
      8 O8         -2.2894    1.8921   -1.0021 O.2       1 UNK         0.0000 
      9 C9          0.4266    6.6763    0.3411 C.ar      1 UNK         0.0000 
     10 O10         2.3781   -2.8903    1.4344 O.2       1 UNK         0.0000 
     11 C11        -1.1582    5.2519   -1.4518 C.ar      1 UNK         0.0000 
     12 O12        -4.3950   -2.7604   -0.4871 O.3       1 UNK         0.0000 
     13 C13         0.8146    5.4049   -0.0799 C.ar      1 UNK         0.0000 
     14 C14        -1.6354   -1.7103   -2.6681 C.ar      1 UNK         0.0000 
     15 C15        -0.8615   -3.4603   -1.2089 C.ar      1 UNK         0.0000 
     16 C16        -3.7364   -0.3272    2.1687 C.ar      1 UNK         0.0000 
     17 C17        -4.9690    0.7446    0.3809 C.ar      1 UNK         0.0000 
     18 C18        -2.9237   -1.8589   -2.1689 C.ar      1 UNK         0.0000 
     19 C19        -2.1485   -3.6079   -0.6862 C.ar      1 UNK         0.0000 
     20 C20        -3.8326   -1.5470    1.5077 C.ar      1 UNK         0.0000 
     21 C21        -5.1203   -0.4820   -0.2557 C.ar      1 UNK         0.0000 
     22 C22         0.8443   -2.1261   -2.5236 C.3       1 UNK         0.0000 
     23 C23        -3.3757    3.2283    1.2560 C.3       1 UNK         0.0000 
     24 C24         0.4128    3.2746   -1.3823 C.3       1 UNK         0.0000 
     25 C25        -0.5766   -2.4724   -2.1589 C.ar      1 UNK         0.0000 
     26 C26         0.0269    4.6783   -0.9796 C.ar      1 UNK         0.0000 
     27 C27        -4.2520    0.8314    1.5782 C.ar      1 UNK         0.0000 
     28 C28        -3.1567   -2.7665   -1.1382 C.ar      1 UNK         0.0000 
     29 C29        -4.4828   -1.5996    0.2764 C.ar      1 UNK         0.0000 
     30 C30        -3.9227    2.1485    2.1944 C.2       1 UNK         0.0000 
     31 C31         0.7146    0.2742   -1.6638 C.2       1 UNK         0.0000 
     32 C32        -1.5379    2.3191   -0.1337 C.2       1 UNK         0.0000 
     33 C33         2.4989   -2.2381    0.4098 C.2       1 UNK         0.0000 
     34 C34         1.4290   -1.0875   -1.5364 C.3       1 UNK         0.0000 
     35 C35        -0.0077    2.2729   -0.2874 C.3       1 UNK         0.0000 
     36 H36         2.4664   -0.8914   -1.8195 H         1 UNK         0.0000 
     37 H37         0.4499    2.6016    0.6514 H         1 UNK         0.0000 
     38 H38        -1.0638    8.2271    0.1944 H         1 UNK         0.0000 
     39 H39        -2.4744    6.9539   -1.4074 H         1 UNK         0.0000 
     40 H40         1.0508    7.2292    1.0362 H         1 UNK         0.0000 
     41 H41        -1.7785    4.6936   -2.1494 H         1 UNK         0.0000 
     42 H42         1.7412    4.9717    0.2909 H         1 UNK         0.0000 
     43 H43        -1.4351   -0.9605   -3.4276 H         1 UNK         0.0000 
     44 H44        -0.0606   -4.0954   -0.8368 H         1 UNK         0.0000 
     45 H45        -3.2020   -0.2532    3.1108 H         1 UNK         0.0000 
     46 H46        -5.3928    1.6340   -0.0747 H         1 UNK         0.0000 
     47 H47        -3.7323   -1.2341   -2.5332 H         1 UNK         0.0000 
     48 H48        -2.3587   -4.3296    0.0966 H         1 UNK         0.0000 
     49 H49        -3.3625   -2.4410    1.9044 H         1 UNK         0.0000 
     50 H50        -5.6553   -0.5644   -1.1957 H         1 UNK         0.0000 
     51 H51         1.4879   -3.0106   -2.4852 H         1 UNK         0.0000 
     52 H52         0.8961   -1.7055   -3.5302 H         1 UNK         0.0000 
     53 H53        -3.9004    3.2477    0.2991 H         1 UNK         0.0000 
     54 H54        -3.4508    4.2000    1.7462 H         1 UNK         0.0000 
     55 H55        -0.0619    2.9977   -2.3238 H         1 UNK         0.0000 
     56 H56         1.4967    3.1915   -1.5119 H         1 UNK         0.0000 
     57 H57        -1.2971    3.2553    1.6703 H         1 UNK         0.0000 
     58 H58         0.7928    0.4275    0.3346 H         1 UNK         0.0000 
     59 H59         0.5534   -1.8867    0.2124 H         1 UNK         0.0000 
     60 O60         3.6338   -2.0457   -0.2658 O.3       1 UNK         0.0000 
     61 C61         4.8958   -2.6470    0.1781 C.3       1 UNK         0.0000 
     62 C62         5.2779   -2.1066    1.5520 C.3       1 UNK         0.0000 
     63 H63         6.2905   -2.4417    1.7943 H         1 UNK         0.0000 
     64 H64         5.2727   -1.0125    1.5408 H         1 UNK         0.0000 
     65 H65         4.5955   -2.4628    2.3242 H         1 UNK         0.0000 
     66 C66         4.7816   -4.1675    0.1572 C.3       1 UNK         0.0000 
     67 H67         4.0976   -4.5261    0.9271 H         1 UNK         0.0000 
     68 H68         4.4314   -4.5047   -0.8231 H         1 UNK         0.0000 
     69 H69         5.7706   -4.5994    0.3352 H         1 UNK         0.0000 
     70 C70         5.8813   -2.1676   -0.8809 C.3       1 UNK         0.0000 
     71 H71         5.5800   -2.5204   -1.8711 H         1 UNK         0.0000 
     72 H72         5.9274   -1.0751   -0.8935 H         1 UNK         0.0000 
     73 H73         6.8777   -2.5575   -0.6585 H         1 UNK         0.0000 
@<TRIPOS>BOND
     1    1   23 1    
     2    1   57 1    
     3    1   32 am   BACKBONE|DICT|INTERRES
     4    2   30 2    
     5    3   38 1    
     6    3    9 ar   
     7    3    6 ar   
     8    4   35 1    
     9    4   58 1    
    10    4   31 am   BACKBONE|DICT|INTERRES
    11    5   31 2    
    12    6   11 ar   
    13    6   39 1    
    14    7   59 1    
    15    7   33 am   BACKBONE|DICT|INTERRES
    16    7   34 1    
    17    8   32 2    
    18    9   40 1    
    19    9   13 ar   
    20   10   33 2    
    21   11   26 ar   
    22   11   41 1    
    23   12   29 1    
    24   12   28 1    
    25   13   42 1    
    26   13   26 ar   
    27   14   18 ar   
    28   14   25 ar   
    29   14   43 1    
    30   15   19 ar   
    31   15   44 1    
    32   15   25 ar   
    33   16   45 1    
    34   16   20 ar   
    35   16   27 ar   
    36   17   27 ar   
    37   17   21 ar   
    38   17   46 1    
    39   18   28 ar   
    40   18   47 1    
    41   19   48 1    
    42   19   28 ar   
    43   20   49 1    
    44   20   29 ar   
    45   21   29 ar   
    46   21   50 1    
    47   22   51 1    
    48   22   25 1    
    49   22   34 1    
    50   22   52 1    
    51   23   54 1    
    52   23   30 1    
    53   23   53 1    
    54   24   26 1    
    55   24   35 1    
    56   24   55 1    
    57   24   56 1    
    58   27   30 1    
    59   31   34 1    
    60   32   35 1    
    61   33   60 1    
    62   34   36 1    
    63   35   37 1    
    64   60   61 1    
    65   61   66 1    
    66   61   62 1    
    67   61   70 1    
    68   62   63 1    
    69   62   65 1    
    70   62   64 1    
    71   66   69 1    
    72   66   67 1    
    73   66   68 1    
    74   70   73 1    
    75   70   71 1    
    76   70   72 1    
@<TRIPOS>SUBSTRUCTURE
     1 UNK         1 GROUP             0       ****    0 ROOT    
@<TRIPOS>MOLECULE
Cpd3-10-MRC
73   76    1
SMALL
USER_CHARGES


@<TRIPOS>ATOM
      1 N1         -1.8747    2.5718    1.2167 N.am      1 UNK         0.0000 
      2 O2         -4.5101    2.3747    3.4247 O.2       1 UNK         0.0000 
      3 C3          4.9052    2.0165   -1.2920 C.ar      1 UNK         0.0000 
      4 N4         -0.0428    1.1989   -1.5234 N.am      1 UNK         0.0000 
      5 O5          1.5059   -0.3072   -0.8225 O.2       1 UNK         0.0000 
      6 C6          4.0120    2.3034   -2.3240 C.ar      1 UNK         0.0000 
      7 N7          1.7851   -0.0140   -3.9518 N.am      1 UNK         0.0000 
      8 O8         -2.1708    2.8483   -1.0229 O.2       1 UNK         0.0000 
      9 C9          4.4980    2.1633    0.0354 C.ar      1 UNK         0.0000 
     10 O10         3.5323   -1.2821   -3.1758 O.2       1 UNK         0.0000 
     11 C11         2.7159    2.7231   -2.0287 C.ar      1 UNK         0.0000 
     12 O12        -4.2467   -2.8249   -0.2996 O.3       1 UNK         0.0000 
     13 C13         3.1996    2.5787    0.3255 C.ar      1 UNK         0.0000 
     14 C14        -1.8098   -2.6004   -3.0373 C.ar      1 UNK         0.0000 
     15 C15        -0.6437   -2.6435   -0.9320 C.ar      1 UNK         0.0000 
     16 C16        -4.2300    0.7966    0.2103 C.ar      1 UNK         0.0000 
     17 C17        -4.5313   -0.3083    2.3419 C.ar      1 UNK         0.0000 
     18 C18        -3.0264   -2.7948   -2.3809 C.ar      1 UNK         0.0000 
     19 C19        -1.8484   -2.8323   -0.2638 C.ar      1 UNK         0.0000 
     20 C20        -4.2930   -0.4268   -0.4354 C.ar      1 UNK         0.0000 
     21 C21        -4.5696   -1.5460    1.7030 C.ar      1 UNK         0.0000 
     22 C22         0.6604   -2.0484   -3.0071 C.3       1 UNK         0.0000 
     23 C23        -3.1328    3.1616    1.6405 C.3       1 UNK         0.0000 
     24 C24         0.8668    3.2265   -0.3965 C.3       1 UNK         0.0000 
     25 C25        -0.6144   -2.4753   -2.3216 C.ar      1 UNK         0.0000 
     26 C26         2.2927    2.8533   -0.7031 C.ar      1 UNK         0.0000 
     27 C27        -4.3088    0.8609    1.6066 C.ar      1 UNK         0.0000 
     28 C28        -3.0337   -2.8549   -0.9934 C.ar      1 UNK         0.0000 
     29 C29        -4.3955   -1.5954    0.3222 C.ar      1 UNK         0.0000 
     30 C30        -4.0569    2.1415    2.3188 C.2       1 UNK         0.0000 
     31 C31         0.7726    0.1298   -1.7022 C.2       1 UNK         0.0000 
     32 C32        -1.4790    2.4890   -0.0722 C.2       1 UNK         0.0000 
     33 C33         3.0736   -0.4510   -3.9405 C.2       1 UNK         0.0000 
     34 C34         0.7093   -0.5117   -3.1041 C.3       1 UNK         0.0000 
     35 C35        -0.0552    1.9830   -0.3040 C.3       1 UNK         0.0000 
     36 H36        -0.2130   -0.1799   -3.5913 H         1 UNK         0.0000 
     37 H37         0.2799    1.3333    0.5096 H         1 UNK         0.0000 
     38 H38         5.9147    1.6861   -1.5181 H         1 UNK         0.0000 
     39 H39         4.3155    2.1973   -3.3613 H         1 UNK         0.0000 
     40 H40         5.1912    1.9519    0.8438 H         1 UNK         0.0000 
     41 H41         2.0211    2.9431   -2.8359 H         1 UNK         0.0000 
     42 H42         2.8822    2.6832    1.3604 H         1 UNK         0.0000 
     43 H43        -1.7997   -2.5011   -4.1200 H         1 UNK         0.0000 
     44 H44         0.2817   -2.5718   -0.3684 H         1 UNK         0.0000 
     45 H45        -4.0856    1.6959   -0.3794 H         1 UNK         0.0000 
     46 H46        -4.6052   -0.2490    3.4234 H         1 UNK         0.0000 
     47 H47        -3.9634   -2.8339   -2.9272 H         1 UNK         0.0000 
     48 H48        -1.8847   -2.9011    0.8195 H         1 UNK         0.0000 
     49 H49        -4.1934   -0.4873   -1.5137 H         1 UNK         0.0000 
     50 H50        -4.6635   -2.4698    2.2638 H         1 UNK         0.0000 
     51 H51         1.5355   -2.3971   -2.4582 H         1 UNK         0.0000 
     52 H52         0.7092   -2.4450   -4.0262 H         1 UNK         0.0000 
     53 H53        -3.6190    3.5793    0.7541 H         1 UNK         0.0000 
     54 H54        -2.9538    3.9672    2.3555 H         1 UNK         0.0000 
     55 H55         0.8065    3.7681    0.5535 H         1 UNK         0.0000 
     56 H56         0.4677    3.8793   -1.1806 H         1 UNK         0.0000 
     57 H57        -1.2423    2.2438    1.9353 H         1 UNK         0.0000 
     58 H58        -0.6289    1.5306   -2.2806 H         1 UNK         0.0000 
     59 H59         1.5518    0.6718   -4.6555 H         1 UNK         0.0000 
     60 O60         3.7650    0.1743   -4.9161 O.3       1 UNK         0.0000 
     61 C61         5.1008   -0.2821   -5.3001 C.3       1 UNK         0.0000 
     62 C62         6.1022   -0.0349   -4.1755 C.3       1 UNK         0.0000 
     63 H63         7.0913   -0.3680   -4.5038 H         1 UNK         0.0000 
     64 H64         6.1656    1.0333   -3.9480 H         1 UNK         0.0000 
     65 H65         5.8264   -0.5813   -3.2728 H         1 UNK         0.0000 
     66 C66         5.0517   -1.7506   -5.7140 C.3       1 UNK         0.0000 
     67 H67         4.8851   -2.4032   -4.8562 H         1 UNK         0.0000 
     68 H68         4.2537   -1.9073   -6.4463 H         1 UNK         0.0000 
     69 H69         6.0029   -2.0207   -6.1816 H         1 UNK         0.0000 
     70 C70         5.4232    0.5989   -6.5017 C.3       1 UNK         0.0000 
     71 H71         4.7090    0.4215   -7.3106 H         1 UNK         0.0000 
     72 H72         5.3826    1.6551   -6.2201 H         1 UNK         0.0000 
     73 H73         6.4290    0.3729   -6.8655 H         1 UNK         0.0000 
@<TRIPOS>BOND
     1    1   57 1    
     2    1   23 1    
     3    1   32 am   BACKBONE|DICT|INTERRES
     4    2   30 2    
     5    3   38 1    
     6    3    9 ar   
     7    3    6 ar   
     8    4   35 1    
     9    4   31 am   BACKBONE|DICT|INTERRES
    10    4   58 1    
    11    5   31 2    
    12    6   11 ar   
    13    6   39 1    
    14    7   34 1    
    15    7   33 am   BACKBONE|DICT|INTERRES
    16    7   59 1    
    17    8   32 2    
    18    9   40 1    
    19    9   13 ar   
    20   10   33 2    
    21   11   26 ar   
    22   11   41 1    
    23   12   28 1    
    24   12   29 1    
    25   13   42 1    
    26   13   26 ar   
    27   14   18 ar   
    28   14   25 ar   
    29   14   43 1    
    30   15   19 ar   
    31   15   44 1    
    32   15   25 ar   
    33   16   20 ar   
    34   16   27 ar   
    35   16   45 1    
    36   17   21 ar   
    37   17   46 1    
    38   17   27 ar   
    39   18   28 ar   
    40   18   47 1    
    41   19   48 1    
    42   19   28 ar   
    43   20   29 ar   
    44   20   49 1    
    45   21   50 1    
    46   21   29 ar   
    47   22   25 1    
    48   22   51 1    
    49   22   34 1    
    50   22   52 1    
    51   23   54 1    
    52   23   30 1    
    53   23   53 1    
    54   24   35 1    
    55   24   55 1    
    56   24   26 1    
    57   24   56 1    
    58   27   30 1    
    59   31   34 1    
    60   32   35 1    
    61   33   60 1    
    62   34   36 1    
    63   35   37 1    
    64   60   61 1    
    65   61   66 1    
    66   61   62 1    
    67   61   70 1    
    68   62   63 1    
    69   62   65 1    
    70   62   64 1    
    71   66   69 1    
    72   66   67 1    
    73   66   68 1    
    74   70   73 1    
    75   70   71 1    
    76   70   72 1    
@<TRIPOS>SUBSTRUCTURE
     1 UNK         1 GROUP             0       ****    0 ROOT    
