@<TRIPOS>MOLECULE
Cpd3-500-MEC
73   76    1
SMALL
USER_CHARGES


@<TRIPOS>ATOM
      1 C          -7.8440    1.9900   -0.1310 C.3       1 ****        0.0000 
      2 H          -8.8590    2.0440    0.2700 H         1 ****        0.0000 
      3 H          -7.3530    2.9550    0.0250 H         1 ****        0.0000 
      4 H          -7.9000    1.7930   -1.2050 H         1 ****        0.0000 
      5 C          -7.0720    0.8800    0.5730 C.3       1 ****        0.0000 
      6 C          -7.7220   -0.4750    0.3100 C.3       1 ****        0.0000 
      7 H          -8.7560   -0.4490    0.6660 H         1 ****        0.0000 
      8 H          -7.7350   -0.6820   -0.7650 H         1 ****        0.0000 
      9 H          -7.1920   -1.2770    0.8240 H         1 ****        0.0000 
     10 C          -6.9390    1.1820    2.0630 C.3       1 ****        0.0000 
     11 H          -6.4080    2.1270    2.2090 H         1 ****        0.0000 
     12 H          -7.9390    1.2800    2.4970 H         1 ****        0.0000 
     13 H          -6.4070    0.3860    2.5840 H         1 ****        0.0000 
     14 O          -5.7600    0.9430   -0.0710 O.3       1 ****        0.0000 
     15 C          -4.7730    0.1090    0.2900 C.3       1 ****        0.0000 
     16 O          -4.8470   -0.7660    1.1380 O.3       1 ****        0.0000 
     17 N          -3.6410    0.3880   -0.4140 N.3       1 ****        0.0000 
     18 H          -3.7120    1.0110   -1.2090 H         1 ****        0.0000 
     19 C          -2.4910   -0.4930   -0.3380 C.3       1 ****        0.0000 
     20 C          -1.2770    0.3470   -0.7360 C.3       1 ****        0.0000 
     21 N          -0.3170    0.5180    0.1930 N.3       1 ****        0.0000 
     22 H          -0.4200    0.1540    1.1340 H         1 ****        0.0000 
     23 O          -1.2120    0.8400   -1.8620 O.3       1 ****        0.0000 
     24 H          -2.4050   -0.8380    0.6970 H         1 ****        0.0000 
     25 C          -2.6420   -1.7120   -1.2750 C.3       1 ****        0.0000 
     26 H          -2.7610   -1.3350   -2.2960 H         1 ****        0.0000 
     27 H          -3.5610   -2.2310   -0.9870 H         1 ****        0.0000 
     28 C          -1.4480   -2.6260   -1.1770 C.3       1 ****        0.0000 
     29 C          -0.3250   -2.4030   -1.9840 C.3       1 ****        0.0000 
     30 C           0.8510   -3.1140   -1.7770 C.3       1 ****        0.0000 
     31 H           1.7410   -2.9110   -2.3640 H         1 ****        0.0000 
     32 H          -0.3640   -1.6370   -2.7540 H         1 ****        0.0000 
     33 C          -1.3920   -3.6360   -0.2120 C.3       1 ****        0.0000 
     34 H          -2.2640   -3.8350    0.4060 H         1 ****        0.0000 
     35 C          -0.2190   -4.3620    0.0030 C.3       1 ****        0.0000 
     36 H          -0.1530   -5.1130    0.7840 H         1 ****        0.0000 
     37 C           0.9050   -4.0580   -0.7540 C.3       1 ****        0.0000 
     38 O           2.1380   -4.6280   -0.4330 O.3       1 ****        0.0000 
     39 C           2.9820   -3.6660    0.0940 C.3       1 ****        0.0000 
     40 C           2.5470   -2.8850    1.1670 C.3       1 ****        0.0000 
     41 C           3.2940   -1.7860    1.5520 C.3       1 ****        0.0000 
     42 H           2.9150   -1.1420    2.3390 H         1 ****        0.0000 
     43 H           1.5940   -3.0980    1.6390 H         1 ****        0.0000 
     44 C           4.2220   -3.4460   -0.5000 C.3       1 ****        0.0000 
     45 H           4.5440   -4.0850   -1.3150 H         1 ****        0.0000 
     46 C           4.9800   -2.3520   -0.0880 C.3       1 ****        0.0000 
     47 H           5.9220   -2.1210   -0.5770 H         1 ****        0.0000 
     48 C           4.4950   -1.4860    0.8970 C.3       1 ****        0.0000 
     49 C           5.1850   -0.1910    1.1420 C.3       1 ****        0.0000 
     50 O           6.3810   -0.0390    0.9760 O.3       1 ****        0.0000 
     51 C           4.3030    1.0060    1.5310 C.3       1 ****        0.0000 
     52 H           3.9030    0.8730    2.5400 H         1 ****        0.0000 
     53 H           4.9310    1.9000    1.5150 H         1 ****        0.0000 
     54 N           3.1770    1.1570    0.6270 N.3       1 ****        0.0000 
     55 H           3.3680    1.4670   -0.3180 H         1 ****        0.0000 
     56 C           1.8870    1.0370    1.0060 C.3       1 ****        0.0000 
     57 O           1.5340    0.7340    2.1440 O.3       1 ****        0.0000 
     58 C           0.8470    1.3420   -0.0710 C.3       1 ****        0.0000 
     59 H           1.2310    1.0860   -1.0650 H         1 ****        0.0000 
     60 C           0.4880    2.8490   -0.0410 C.3       1 ****        0.0000 
     61 H           0.1310    3.0950    0.9650 H         1 ****        0.0000 
     62 H          -0.3400    2.9890   -0.7430 H         1 ****        0.0000 
     63 C           1.6620    3.7150   -0.4230 C.3       1 ****        0.0000 
     64 C           2.0680    3.7940   -1.7600 C.3       1 ****        0.0000 
     65 H           1.4900    3.2780   -2.5250 H         1 ****        0.0000 
     66 C           3.1970    4.5280   -2.1180 C.3       1 ****        0.0000 
     67 H           3.4990    4.5820   -3.1600 H         1 ****        0.0000 
     68 C           3.9350    5.1980   -1.1410 C.3       1 ****        0.0000 
     69 H           4.8140    5.7710   -1.4180 H         1 ****        0.0000 
     70 C           3.5330    5.1320    0.1930 C.3       1 ****        0.0000 
     71 H           4.0990    5.6540    0.9590 H         1 ****        0.0000 
     72 C           2.4050    4.3930    0.5480 C.3       1 ****        0.0000 
     73 H           2.1000    4.3350    1.5910 H         1 ****        0.0000 
@<TRIPOS>BOND
     1    1    2 1    
     2    1    3 1    
     3    1    4 1    
     4    1    5 1    
     5    5    6 1    
     6    5   10 1    
     7    5   14 1    
     8    6    7 1    
     9    6    8 1    
    10    6    9 1    
    11   10   11 1    
    12   10   12 1    
    13   10   13 1    
    14   14   15 1    
    15   15   16 1    
    16   15   17 1    
    17   17   18 1    
    18   17   19 1    
    19   19   20 1    
    20   19   24 1    
    21   19   25 1    
    22   20   21 1    
    23   20   23 1    
    24   21   22 1    
    25   21   58 1    
    26   25   26 1    
    27   25   27 1    
    28   25   28 1    
    29   28   29 1    
    30   28   33 1    
    31   29   30 1    
    32   29   32 1    
    33   30   31 1    
    34   30   37 1    
    35   33   34 1    
    36   33   35 1    
    37   35   36 1    
    38   35   37 1    
    39   37   38 1    
    40   38   39 1    
    41   39   40 1    
    42   39   44 1    
    43   40   41 1    
    44   40   43 1    
    45   41   42 1    
    46   41   48 1    
    47   44   45 1    
    48   44   46 1    
    49   46   47 1    
    50   46   48 1    
    51   48   49 1    
    52   49   50 1    
    53   49   51 1    
    54   51   52 1    
    55   51   53 1    
    56   51   54 1    
    57   54   55 1    
    58   54   56 1    
    59   56   57 1    
    60   56   58 1    
    61   58   59 1    
    62   58   60 1    
    63   60   61 1    
    64   60   62 1    
    65   60   63 1    
    66   63   64 1    
    67   63   72 1    
    68   64   65 1    
    69   64   66 1    
    70   66   67 1    
    71   66   68 1    
    72   68   69 1    
    73   68   70 1    
    74   70   71 1    
    75   70   72 1    
    76   72   73 1    
@<TRIPOS>SUBSTRUCTURE
     1 ****        1 GROUP             0       ****    0 ROOT    
@<TRIPOS>MOLECULE
Cpd3-1000
73   76    1
SMALL
USER_CHARGES


@<TRIPOS>ATOM
      1 C          -7.8442    1.9890   -0.1336 C.3       1 ****        0.0000 
      2 H          -8.8603    2.0430    0.2663 H         1 ****        0.0000 
      3 H          -7.3543    2.9541    0.0231 H         1 ****        0.0000 
      4 H          -7.9011    1.7925   -1.2075 H         1 ****        0.0000 
      5 C          -7.0722    0.8793    0.5710 C.3       1 ****        0.0000 
      6 C          -7.7221   -0.4758    0.3055 C.3       1 ****        0.0000 
      7 H          -7.7329   -0.6833   -0.7684 H         1 ****        0.0000 
      8 H          -7.1921   -1.2776    0.8209 H         1 ****        0.0000 
      9 H          -8.7561   -0.4508    0.6604 H         1 ****        0.0000 
     10 C          -6.9424    1.1800    2.0609 C.3       1 ****        0.0000 
     11 H          -7.9424    1.2771    2.4937 H         1 ****        0.0000 
     12 H          -6.4084    0.3842    2.5823 H         1 ****        0.0000 
     13 H          -6.4125    2.1261    2.2075 H         1 ****        0.0000 
     14 O          -5.7602    0.9442   -0.0719 O.3       1 ****        0.0000 
     15 C          -4.7731    0.1084    0.2895 C.3       1 ****        0.0000 
     16 O          -4.8481   -0.7672    1.1369 O.3       1 ****        0.0000 
     17 N          -3.6411    0.3882   -0.4145 N.3       1 ****        0.0000 
     18 H          -3.7110    1.0108   -1.2097 H         1 ****        0.0000 
     19 C          -2.4920   -0.4927   -0.3380 C.3       1 ****        0.0000 
     20 C          -1.2770    0.3472   -0.7362 C.3       1 ****        0.0000 
     21 N          -0.3171    0.5177    0.1938 N.3       1 ****        0.0000 
     22 H          -0.4202    0.1531    1.1330 H         1 ****        0.0000 
     23 O          -1.2130    0.8408   -1.8624 O.3       1 ****        0.0000 
     24 H          -2.4051   -0.8382    0.6962 H         1 ****        0.0000 
     25 C          -2.6418   -1.7111   -1.2755 C.3       1 ****        0.0000 
     26 H          -2.7607   -1.3355   -2.2966 H         1 ****        0.0000 
     27 H          -3.5608   -2.2311   -0.9873 H         1 ****        0.0000 
     28 C          -1.4477   -2.6260   -1.1770 C.3       1 ****        0.0000 
     29 C          -0.3247   -2.4032   -1.9839 C.3       1 ****        0.0000 
     30 C           0.8514   -3.1140   -1.7765 C.3       1 ****        0.0000 
     31 H           1.7414   -2.9112   -2.3635 H         1 ****        0.0000 
     32 H          -0.3637   -1.6365   -2.7533 H         1 ****        0.0000 
     33 C          -1.3918   -3.6365   -0.2125 C.3       1 ****        0.0000 
     34 H          -2.2638   -3.8353    0.4055 H         1 ****        0.0000 
     35 C          -0.2187   -4.3623    0.0029 C.3       1 ****        0.0000 
     36 H          -0.1537   -5.1130    0.7832 H         1 ****        0.0000 
     37 C           0.9043   -4.0576   -0.7541 C.3       1 ****        0.0000 
     38 O           2.1374   -4.6283   -0.4327 O.3       1 ****        0.0000 
     39 C           2.9822   -3.6660    0.0949 C.3       1 ****        0.0000 
     40 C           2.5470   -2.8856    1.1676 C.3       1 ****        0.0000 
     41 C           3.2949   -1.7864    1.5522 C.3       1 ****        0.0000 
     42 H           2.9158   -1.1421    2.3399 H         1 ****        0.0000 
     43 H           1.5940   -3.0995    1.6406 H         1 ****        0.0000 
     44 C           4.2223   -3.4462   -0.5000 C.3       1 ****        0.0000 
     45 H           4.5444   -4.0845   -1.3157 H         1 ****        0.0000 
     46 C           4.9801   -2.3510   -0.0884 C.3       1 ****        0.0000 
     47 H           5.9212   -2.1211   -0.5774 H         1 ****        0.0000 
     48 C           4.4950   -1.4856    0.8972 C.3       1 ****        0.0000 
     49 C           5.1848   -0.1904    1.1417 C.3       1 ****        0.0000 
     50 O           6.3808   -0.0394    0.9757 O.3       1 ****        0.0000 
     51 C           4.3027    1.0057    1.5311 C.3       1 ****        0.0000 
     52 H           3.9036    0.8721    2.5401 H         1 ****        0.0000 
     53 H           4.9306    1.8997    1.5148 H         1 ****        0.0000 
     54 N           3.1768    1.1572    0.6269 N.3       1 ****        0.0000 
     55 H           3.3678    1.4668   -0.3182 H         1 ****        0.0000 
     56 C           1.8867    1.0363    1.0058 C.3       1 ****        0.0000 
     57 O           1.5346    0.7337    2.1439 O.3       1 ****        0.0000 
     58 C           0.8478    1.3417   -0.0714 C.3       1 ****        0.0000 
     59 H           1.2309    1.0843   -1.0653 H         1 ****        0.0000 
     60 C           0.4887    2.8487   -0.0421 C.3       1 ****        0.0000 
     61 H           0.1326    3.0951    0.9638 H         1 ****        0.0000 
     62 H          -0.3393    2.9883   -0.7432 H         1 ****        0.0000 
     63 C           1.6627    3.7146   -0.4244 C.3       1 ****        0.0000 
     64 C           2.0678    3.7921   -1.7623 C.3       1 ****        0.0000 
     65 H           1.4909    3.2747   -2.5262 H         1 ****        0.0000 
     66 C           3.1978    4.5260   -2.1215 C.3       1 ****        0.0000 
     67 H           3.4989    4.5786   -3.1635 H         1 ****        0.0000 
     68 C           3.9356    5.1965   -1.1448 C.3       1 ****        0.0000 
     69 H           4.8136    5.7695   -1.4229 H         1 ****        0.0000 
     70 C           3.5335    5.1320    0.1892 C.3       1 ****        0.0000 
     71 H           4.1004    5.6544    0.9541 H         1 ****        0.0000 
     72 C           2.4055    4.3931    0.5454 C.3       1 ****        0.0000 
     73 H           2.1014    4.3365    1.5884 H         1 ****        0.0000 
@<TRIPOS>BOND
     1    1    2 1    
     2    1    3 1    
     3    1    4 1    
     4    1    5 1    
     5    5    6 1    
     6    5   10 1    
     7    5   14 1    
     8    6    7 1    
     9    6    8 1    
    10    6    9 1    
    11   10   11 1    
    12   10   12 1    
    13   10   13 1    
    14   14   15 1    
    15   15   16 1    
    16   15   17 1    
    17   17   18 1    
    18   17   19 1    
    19   19   20 1    
    20   19   24 1    
    21   19   25 1    
    22   20   21 1    
    23   20   23 1    
    24   21   22 1    
    25   21   58 1    
    26   25   26 1    
    27   25   27 1    
    28   25   28 1    
    29   28   29 1    
    30   28   33 1    
    31   29   30 1    
    32   29   32 1    
    33   30   31 1    
    34   30   37 1    
    35   33   34 1    
    36   33   35 1    
    37   35   36 1    
    38   35   37 1    
    39   37   38 1    
    40   38   39 1    
    41   39   40 1    
    42   39   44 1    
    43   40   41 1    
    44   40   43 1    
    45   41   42 1    
    46   41   48 1    
    47   44   45 1    
    48   44   46 1    
    49   46   47 1    
    50   46   48 1    
    51   48   49 1    
    52   49   50 1    
    53   49   51 1    
    54   51   52 1    
    55   51   53 1    
    56   51   54 1    
    57   54   55 1    
    58   54   56 1    
    59   56   57 1    
    60   56   58 1    
    61   58   59 1    
    62   58   60 1    
    63   60   61 1    
    64   60   62 1    
    65   60   63 1    
    66   63   64 1    
    67   63   72 1    
    68   64   65 1    
    69   64   66 1    
    70   66   67 1    
    71   66   68 1    
    72   68   69 1    
    73   68   70 1    
    74   70   71 1    
    75   70   72 1    
    76   72   73 1    
@<TRIPOS>SUBSTRUCTURE
     1 ****        1 GROUP             0       ****    0 ROOT    
@<TRIPOS>MOLECULE
Cpd3-1500-MRC
73   76    1
SMALL
USER_CHARGES


@<TRIPOS>ATOM
      1 C          -6.1834    3.9445    0.5212 C.3       1 ****        0.0000 
      2 H          -7.0255    3.2559    0.4114 H         1 ****        0.0000 
      3 H          -6.5143    4.8161    1.0909 H         1 ****        0.0000 
      4 H          -5.8664    4.2742   -0.4724 H         1 ****        0.0000 
      5 C          -5.0308    3.2621    1.2488 C.3       1 ****        0.0000 
      6 C          -5.4837    2.7516    2.6126 C.3       1 ****        0.0000 
      7 H          -5.8550    3.5939    3.2027 H         1 ****        0.0000 
      8 H          -6.3000    2.0320    2.4913 H         1 ****        0.0000 
      9 H          -4.6637    2.2771    3.1525 H         1 ****        0.0000 
     10 C          -3.8292    4.1976    1.3454 C.3       1 ****        0.0000 
     11 H          -3.0058    3.7333    1.8894 H         1 ****        0.0000 
     12 H          -3.4877    4.4761    0.3442 H         1 ****        0.0000 
     13 H          -4.1283    5.1089    1.8718 H         1 ****        0.0000 
     14 O          -4.7167    2.1355    0.3689 O.3       1 ****        0.0000 
     15 C          -3.7198    1.2910    0.6624 C.3       1 ****        0.0000 
     16 O          -3.0137    1.3288    1.6572 O.3       1 ****        0.0000 
     17 N          -3.6021    0.3349   -0.3077 N.3       1 ****        0.0000 
     18 H          -4.0517    0.5278   -1.1938 H         1 ****        0.0000 
     19 C          -2.4349   -0.5296   -0.3062 C.3       1 ****        0.0000 
     20 C          -1.2005    0.2866   -0.7281 C.3       1 ****        0.0000 
     21 N          -0.2808    0.5151    0.2317 N.3       1 ****        0.0000 
     22 H          -0.5005    0.3078    1.2001 H         1 ****        0.0000 
     23 O          -1.0891    0.7050   -1.8797 O.3       1 ****        0.0000 
     24 H          -2.3014   -0.9024    0.7135 H         1 ****        0.0000 
     25 C          -2.6506   -1.7138   -1.2613 C.3       1 ****        0.0000 
     26 H          -2.7757   -1.3255   -2.2773 H         1 ****        0.0000 
     27 H          -3.5735   -2.2208   -0.9662 H         1 ****        0.0000 
     28 C          -1.4690   -2.6507   -1.1951 C.3       1 ****        0.0000 
     29 C          -0.3569   -2.4396   -2.0175 C.3       1 ****        0.0000 
     30 C           0.8202   -3.1499   -1.8128 C.3       1 ****        0.0000 
     31 H           1.7076   -2.9495   -2.4052 H         1 ****        0.0000 
     32 H          -0.4004   -1.6753   -2.7886 H         1 ****        0.0000 
     33 C          -1.4091   -3.6579   -0.2274 C.3       1 ****        0.0000 
     34 H          -2.2749   -3.8497    0.4019 H         1 ****        0.0000 
     35 C          -0.2346   -4.3824   -0.0142 C.3       1 ****        0.0000 
     36 H          -0.1630   -5.1258    0.7730 H         1 ****        0.0000 
     37 C           0.8846   -4.0796   -0.7777 C.3       1 ****        0.0000 
     38 O           2.1241   -4.6297   -0.4482 O.3       1 ****        0.0000 
     39 C           2.9546   -3.6539    0.0749 C.3       1 ****        0.0000 
     40 C           2.4956   -2.8429    1.1160 C.3       1 ****        0.0000 
     41 C           3.2451   -1.7448    1.5017 C.3       1 ****        0.0000 
     42 H           2.8525   -1.0833    2.2681 H         1 ****        0.0000 
     43 H           1.5276   -3.0347    1.5661 H         1 ****        0.0000 
     44 C           4.2123   -3.4559   -0.4885 C.3       1 ****        0.0000 
     45 H           4.5514   -4.1147   -1.2803 H         1 ****        0.0000 
     46 C           4.9691   -2.3596   -0.0789 C.3       1 ****        0.0000 
     47 H           5.9275   -2.1497   -0.5451 H         1 ****        0.0000 
     48 C           4.4679   -1.4707    0.8772 C.3       1 ****        0.0000 
     49 C           5.1770   -0.1873    1.1329 C.3       1 ****        0.0000 
     50 O           6.3764   -0.0580    0.9739 O.3       1 ****        0.0000 
     51 C           4.3208    1.0221    1.5361 C.3       1 ****        0.0000 
     52 H           3.9337    0.8909    2.5511 H         1 ****        0.0000 
     53 H           4.9650    1.9043    1.5160 H         1 ****        0.0000 
     54 N           3.1832    1.1983    0.6517 N.3       1 ****        0.0000 
     55 H           3.3641    1.4765   -0.3039 H         1 ****        0.0000 
     56 C           1.8965    1.1183    1.0588 C.3       1 ****        0.0000 
     57 O           1.5624    0.8569    2.2126 O.3       1 ****        0.0000 
     58 C           0.8407    1.4021   -0.0070 C.3       1 ****        0.0000 
     59 H           1.2305    1.1885   -1.0079 H         1 ****        0.0000 
     60 C           0.4025    2.8852    0.0657 C.3       1 ****        0.0000 
     61 H          -0.0128    3.0661    1.0634 H         1 ****        0.0000 
     62 H          -0.3997    3.0151   -0.6674 H         1 ****        0.0000 
     63 C           1.5494    3.8213   -0.2193 C.3       1 ****        0.0000 
     64 C           1.9851    4.0181   -1.5355 C.3       1 ****        0.0000 
     65 H           1.4465    3.5442   -2.3531 H         1 ****        0.0000 
     66 C           3.0954    4.8173   -1.8044 C.3       1 ****        0.0000 
     67 H           3.4211    4.9642   -2.8293 H         1 ****        0.0000 
     68 C           3.7847    5.4322   -0.7579 C.3       1 ****        0.0000 
     69 H           4.6490    6.0554   -0.9659 H         1 ****        0.0000 
     70 C           3.3541    5.2453    0.5562 C.3       1 ****        0.0000 
     71 H           3.8830    5.7243    1.3755 H         1 ****        0.0000 
     72 C           2.2446    4.4438    0.8219 C.3       1 ****        0.0000 
     73 H           1.9165    4.2924    1.8473 H         1 ****        0.0000 
@<TRIPOS>BOND
     1    1    2 1    
     2    1    3 1    
     3    1    4 1    
     4    1    5 1    
     5    5    6 1    
     6    5   10 1    
     7    5   14 1    
     8    6    7 1    
     9    6    8 1    
    10    6    9 1    
    11   10   11 1    
    12   10   12 1    
    13   10   13 1    
    14   14   15 1    
    15   15   16 1    
    16   15   17 1    
    17   17   18 1    
    18   17   19 1    
    19   19   20 1    
    20   19   24 1    
    21   19   25 1    
    22   20   21 1    
    23   20   23 1    
    24   21   22 1    
    25   21   58 1    
    26   25   26 1    
    27   25   27 1    
    28   25   28 1    
    29   28   29 1    
    30   28   33 1    
    31   29   30 1    
    32   29   32 1    
    33   30   31 1    
    34   30   37 1    
    35   33   34 1    
    36   33   35 1    
    37   35   36 1    
    38   35   37 1    
    39   37   38 1    
    40   38   39 1    
    41   39   40 1    
    42   39   44 1    
    43   40   41 1    
    44   40   43 1    
    45   41   42 1    
    46   41   48 1    
    47   44   45 1    
    48   44   46 1    
    49   46   47 1    
    50   46   48 1    
    51   48   49 1    
    52   49   50 1    
    53   49   51 1    
    54   51   52 1    
    55   51   53 1    
    56   51   54 1    
    57   54   55 1    
    58   54   56 1    
    59   56   57 1    
    60   56   58 1    
    61   58   59 1    
    62   58   60 1    
    63   60   61 1    
    64   60   62 1    
    65   60   63 1    
    66   63   64 1    
    67   63   72 1    
    68   64   65 1    
    69   64   66 1    
    70   66   67 1    
    71   66   68 1    
    72   68   69 1    
    73   68   70 1    
    74   70   71 1    
    75   70   72 1    
    76   72   73 1    
@<TRIPOS>SUBSTRUCTURE
     1 ****        1 GROUP             0       ****    0 ROOT    
@<TRIPOS>MOLECULE
Cpd3-2000
73   76    1
SMALL
USER_CHARGES


@<TRIPOS>ATOM
      1 C          -7.8446    1.9879   -0.1327 C.3       1 ****        0.0000 
      2 H          -8.8606    2.0418    0.2672 H         1 ****        0.0000 
      3 H          -7.3548    2.9531    0.0242 H         1 ****        0.0000 
      4 H          -7.9004    1.7927   -1.2066 H         1 ****        0.0000 
      5 C          -7.0724    0.8782    0.5716 C.3       1 ****        0.0000 
      6 C          -7.7221   -0.4770    0.3058 C.3       1 ****        0.0000 
      7 H          -8.7561   -0.4521    0.6607 H         1 ****        0.0000 
      8 H          -7.7330   -0.6842   -0.7682 H         1 ****        0.0000 
      9 H          -7.1920   -1.2788    0.8210 H         1 ****        0.0000 
     10 C          -6.9426    1.1785    2.0616 C.3       1 ****        0.0000 
     11 H          -6.4118    2.1247    2.2085 H         1 ****        0.0000 
     12 H          -7.9427    1.2754    2.4945 H         1 ****        0.0000 
     13 H          -6.4095    0.3827    2.5828 H         1 ****        0.0000 
     14 O          -5.7604    0.9424   -0.0713 O.3       1 ****        0.0000 
     15 C          -4.7732    0.1086    0.2900 C.3       1 ****        0.0000 
     16 O          -4.8471   -0.7672    1.1371 O.3       1 ****        0.0000 
     17 N          -3.6412    0.3877   -0.4140 N.3       1 ****        0.0000 
     18 H          -3.7113    1.0106   -1.2091 H         1 ****        0.0000 
     19 C          -2.4920   -0.4930   -0.3377 C.3       1 ****        0.0000 
     20 C          -1.2772    0.3472   -0.7357 C.3       1 ****        0.0000 
     21 N          -0.3173    0.5175    0.1933 N.3       1 ****        0.0000 
     22 H          -0.4203    0.1537    1.1334 H         1 ****        0.0000 
     23 O          -1.2122    0.8400   -1.8618 O.3       1 ****        0.0000 
     24 H          -2.4051   -0.8388    0.6964 H         1 ****        0.0000 
     25 C          -2.6417   -1.7112   -1.2755 C.3       1 ****        0.0000 
     26 H          -2.7607   -1.3354   -2.2966 H         1 ****        0.0000 
     27 H          -3.5606   -2.2303   -0.9875 H         1 ****        0.0000 
     28 C          -1.4485   -2.6259   -1.1772 C.3       1 ****        0.0000 
     29 C          -0.3255   -2.4029   -1.9842 C.3       1 ****        0.0000 
     30 C           0.8506   -3.1136   -1.7769 C.3       1 ****        0.0000 
     31 H           1.7416   -2.9105   -2.3639 H         1 ****        0.0000 
     32 H          -0.3646   -1.6370   -2.7533 H         1 ****        0.0000 
     33 C          -1.3924   -3.6368   -0.2130 C.3       1 ****        0.0000 
     34 H          -2.2644   -3.8358    0.4049 H         1 ****        0.0000 
     35 C          -0.2183   -4.3625    0.0032 C.3       1 ****        0.0000 
     36 H          -0.1532   -5.1133    0.7834 H         1 ****        0.0000 
     37 C           0.9047   -4.0584   -0.7537 C.3       1 ****        0.0000 
     38 O           2.1378   -4.6281   -0.4325 O.3       1 ****        0.0000 
     39 C           2.9826   -3.6668    0.0944 C.3       1 ****        0.0000 
     40 C           2.5463   -2.8847    1.1662 C.3       1 ****        0.0000 
     41 C           3.2940   -1.7865    1.5521 C.3       1 ****        0.0000 
     42 H           2.9158   -1.1424    2.3389 H         1 ****        0.0000 
     43 H           1.5943   -3.0988    1.6391 H         1 ****        0.0000 
     44 C           4.2226   -3.4457   -0.4995 C.3       1 ****        0.0000 
     45 H           4.5438   -4.0847   -1.3154 H         1 ****        0.0000 
     46 C           4.9803   -2.3514   -0.0877 C.3       1 ****        0.0000 
     47 H           5.9213   -2.1213   -0.5776 H         1 ****        0.0000 
     48 C           4.4950   -1.4854    0.8971 C.3       1 ****        0.0000 
     49 C           5.1858   -0.1912    1.1420 C.3       1 ****        0.0000 
     50 O           6.3807   -0.0390    0.9760 O.3       1 ****        0.0000 
     51 C           4.3035    1.0057    1.5307 C.3       1 ****        0.0000 
     52 H           3.9034    0.8728    2.5396 H         1 ****        0.0000 
     53 H           4.9303    1.8998    1.5145 H         1 ****        0.0000 
     54 N           3.1775    1.1573    0.6265 N.3       1 ****        0.0000 
     55 H           3.3686    1.4662   -0.3185 H         1 ****        0.0000 
     56 C           1.8865    1.0371    1.0064 C.3       1 ****        0.0000 
     57 O           1.5345    0.7343    2.1444 O.3       1 ****        0.0000 
     58 C           0.8476    1.3417   -0.0717 C.3       1 ****        0.0000 
     59 H           1.2307    1.0856   -1.0656 H         1 ****        0.0000 
     60 C           0.4883    2.8487   -0.0410 C.3       1 ****        0.0000 
     61 H           0.1321    3.0948    0.9649 H         1 ****        0.0000 
     62 H          -0.3397    2.9884   -0.7421 H         1 ****        0.0000 
     63 C           1.6621    3.7148   -0.4231 C.3       1 ****        0.0000 
     64 C           2.0672    3.7927   -1.7611 C.3       1 ****        0.0000 
     65 H           1.4904    3.2764   -2.5250 H         1 ****        0.0000 
     66 C           3.1971    4.5268   -2.1201 C.3       1 ****        0.0000 
     67 H           3.4992    4.5807   -3.1611 H         1 ****        0.0000 
     68 C           3.9349    5.1972   -1.1421 C.3       1 ****        0.0000 
     69 H           4.8138    5.7703   -1.4202 H         1 ****        0.0000 
     70 C           3.5328    5.1313    0.1918 C.3       1 ****        0.0000 
     71 H           4.0996    5.6546    0.9568 H         1 ****        0.0000 
     72 C           2.4049    4.3932    0.5469 C.3       1 ****        0.0000 
     73 H           2.1008    4.3353    1.5898 H         1 ****        0.0000 
@<TRIPOS>BOND
     1    1    2 1    
     2    1    3 1    
     3    1    4 1    
     4    1    5 1    
     5    5    6 1    
     6    5   10 1    
     7    5   14 1    
     8    6    7 1    
     9    6    8 1    
    10    6    9 1    
    11   10   11 1    
    12   10   12 1    
    13   10   13 1    
    14   14   15 1    
    15   15   16 1    
    16   15   17 1    
    17   17   18 1    
    18   17   19 1    
    19   19   20 1    
    20   19   24 1    
    21   19   25 1    
    22   20   21 1    
    23   20   23 1    
    24   21   22 1    
    25   21   58 1    
    26   25   26 1    
    27   25   27 1    
    28   25   28 1    
    29   28   29 1    
    30   28   33 1    
    31   29   30 1    
    32   29   32 1    
    33   30   31 1    
    34   30   37 1    
    35   33   34 1    
    36   33   35 1    
    37   35   36 1    
    38   35   37 1    
    39   37   38 1    
    40   38   39 1    
    41   39   40 1    
    42   39   44 1    
    43   40   41 1    
    44   40   43 1    
    45   41   42 1    
    46   41   48 1    
    47   44   45 1    
    48   44   46 1    
    49   46   47 1    
    50   46   48 1    
    51   48   49 1    
    52   49   50 1    
    53   49   51 1    
    54   51   52 1    
    55   51   53 1    
    56   51   54 1    
    57   54   55 1    
    58   54   56 1    
    59   56   57 1    
    60   56   58 1    
    61   58   59 1    
    62   58   60 1    
    63   60   61 1    
    64   60   62 1    
    65   60   63 1    
    66   63   64 1    
    67   63   72 1    
    68   64   65 1    
    69   64   66 1    
    70   66   67 1    
    71   66   68 1    
    72   68   69 1    
    73   68   70 1    
    74   70   71 1    
    75   70   72 1    
    76   72   73 1    
@<TRIPOS>SUBSTRUCTURE
     1 ****        1 GROUP             0       ****    0 ROOT    
@<TRIPOS>MOLECULE
Cpd3-2500
73   76    1
SMALL
USER_CHARGES


@<TRIPOS>ATOM
      1 C          -6.1836    3.9439    0.5203 C.3       1 ****        0.0000 
      2 H          -6.5154    4.8161    1.0900 H         1 ****        0.0000 
      3 H          -5.8678    4.2731   -0.4733 H         1 ****        0.0000 
      4 H          -7.0264    3.2545    0.4113 H         1 ****        0.0000 
      5 C          -5.0308    3.2622    1.2471 C.3       1 ****        0.0000 
      6 C          -5.4826    2.7522    2.6119 C.3       1 ****        0.0000 
      7 H          -5.8533    3.5953    3.2030 H         1 ****        0.0000 
      8 H          -6.2994    2.0339    2.4927 H         1 ****        0.0000 
      9 H          -4.6622    2.2784    3.1510 H         1 ****        0.0000 
     10 C          -3.8286    4.1985    1.3429 C.3       1 ****        0.0000 
     11 H          -4.1284    5.1104    1.8683 H         1 ****        0.0000 
     12 H          -3.0053    3.7341    1.8869 H         1 ****        0.0000 
     13 H          -3.4883    4.4767    0.3408 H         1 ****        0.0000 
     14 O          -4.7182    2.1351    0.3681 O.3       1 ****        0.0000 
     15 C          -3.7201    1.2908    0.6618 C.3       1 ****        0.0000 
     16 O          -3.0123    1.3299    1.6558 O.3       1 ****        0.0000 
     17 N          -3.6017    0.3342   -0.3083 N.3       1 ****        0.0000 
     18 H          -4.0525    0.5267   -1.1935 H         1 ****        0.0000 
     19 C          -2.4341   -0.5297   -0.3066 C.3       1 ****        0.0000 
     20 C          -1.2009    0.2859   -0.7285 C.3       1 ****        0.0000 
     21 N          -0.2808    0.5152    0.2315 N.3       1 ****        0.0000 
     22 H          -0.5005    0.3079    1.1999 H         1 ****        0.0000 
     23 O          -1.0888    0.7051   -1.8789 O.3       1 ****        0.0000 
     24 H          -2.3012   -0.9034    0.7139 H         1 ****        0.0000 
     25 C          -2.6508   -1.7134   -1.2607 C.3       1 ****        0.0000 
     26 H          -2.7757   -1.3249   -2.2778 H         1 ****        0.0000 
     27 H          -3.5743   -2.2210   -0.9668 H         1 ****        0.0000 
     28 C          -1.4694   -2.6505   -1.1944 C.3       1 ****        0.0000 
     29 C          -0.3563   -2.4400   -2.0177 C.3       1 ****        0.0000 
     30 C           0.8211   -3.1496   -1.8129 C.3       1 ****        0.0000 
     31 H           1.7078   -2.9489   -2.4052 H         1 ****        0.0000 
     32 H          -0.3996   -1.6758   -2.7879 H         1 ****        0.0000 
     33 C          -1.4089   -3.6581   -0.2278 C.3       1 ****        0.0000 
     34 H          -2.2748   -3.8497    0.4015 H         1 ****        0.0000 
     35 C          -0.2345   -4.3828   -0.0145 C.3       1 ****        0.0000 
     36 H          -0.1632   -5.1263    0.7727 H         1 ****        0.0000 
     37 C           0.8839   -4.0798   -0.7778 C.3       1 ****        0.0000 
     38 O           2.1237   -4.6292   -0.4481 O.3       1 ****        0.0000 
     39 C           2.9543   -3.6536    0.0751 C.3       1 ****        0.0000 
     40 C           2.4963   -2.8430    1.1160 C.3       1 ****        0.0000 
     41 C           3.2451   -1.7445    1.5019 C.3       1 ****        0.0000 
     42 H           2.8521   -1.0838    2.2682 H         1 ****        0.0000 
     43 H           1.5278   -3.0355    1.5660 H         1 ****        0.0000 
     44 C           4.2121   -3.4558   -0.4892 C.3       1 ****        0.0000 
     45 H           4.5520   -4.1150   -1.2810 H         1 ****        0.0000 
     46 C           4.9691   -2.3597   -0.0785 C.3       1 ****        0.0000 
     47 H           5.9268   -2.1494   -0.5446 H         1 ****        0.0000 
     48 C           4.4680   -1.4707    0.8775 C.3       1 ****        0.0000 
     49 C           5.1769   -0.1883    1.1332 C.3       1 ****        0.0000 
     50 O           6.3759   -0.0578    0.9735 O.3       1 ****        0.0000 
     51 C           4.3200    1.0218    1.5354 C.3       1 ****        0.0000 
     52 H           3.9336    0.8903    2.5503 H         1 ****        0.0000 
     53 H           4.9643    1.9038    1.5163 H         1 ****        0.0000 
     54 N           3.1824    1.1982    0.6519 N.3       1 ****        0.0000 
     55 H           3.3635    1.4764   -0.3047 H         1 ****        0.0000 
     56 C           1.8971    1.1188    1.0590 C.3       1 ****        0.0000 
     57 O           1.5628    0.8575    2.2126 O.3       1 ****        0.0000 
     58 C           0.8409    1.4019   -0.0071 C.3       1 ****        0.0000 
     59 H           1.2308    1.1882   -1.0079 H         1 ****        0.0000 
     60 C           0.4030    2.8851    0.0656 C.3       1 ****        0.0000 
     61 H          -0.0137    3.0657    1.0632 H         1 ****        0.0000 
     62 H          -0.3996    3.0143   -0.6677 H         1 ****        0.0000 
     63 C           1.5501    3.8210   -0.2193 C.3       1 ****        0.0000 
     64 C           1.9860    4.0177   -1.5344 C.3       1 ****        0.0000 
     65 H           1.4478    3.5425   -2.3523 H         1 ****        0.0000 
     66 C           3.0965    4.8166   -1.8032 C.3       1 ****        0.0000 
     67 H           3.4218    4.9627   -2.8292 H         1 ****        0.0000 
     68 C           3.7849    5.4319   -0.7566 C.3       1 ****        0.0000 
     69 H           4.6485    6.0554   -0.9645 H         1 ****        0.0000 
     70 C           3.3537    5.2465    0.5566 C.3       1 ****        0.0000 
     71 H           3.8813    5.7249    1.3759 H         1 ****        0.0000 
     72 C           2.2436    4.4443    0.8220 C.3       1 ****        0.0000 
     73 H           1.9154    4.2929    1.8475 H         1 ****        0.0000 
@<TRIPOS>BOND
     1    1    2 1    
     2    1    3 1    
     3    1    4 1    
     4    1    5 1    
     5    5    6 1    
     6    5   10 1    
     7    5   14 1    
     8    6    7 1    
     9    6    8 1    
    10    6    9 1    
    11   10   11 1    
    12   10   12 1    
    13   10   13 1    
    14   14   15 1    
    15   15   16 1    
    16   15   17 1    
    17   17   18 1    
    18   17   19 1    
    19   19   20 1    
    20   19   24 1    
    21   19   25 1    
    22   20   21 1    
    23   20   23 1    
    24   21   22 1    
    25   21   58 1    
    26   25   26 1    
    27   25   27 1    
    28   25   28 1    
    29   28   29 1    
    30   28   33 1    
    31   29   30 1    
    32   29   32 1    
    33   30   31 1    
    34   30   37 1    
    35   33   34 1    
    36   33   35 1    
    37   35   36 1    
    38   35   37 1    
    39   37   38 1    
    40   38   39 1    
    41   39   40 1    
    42   39   44 1    
    43   40   41 1    
    44   40   43 1    
    45   41   42 1    
    46   41   48 1    
    47   44   45 1    
    48   44   46 1    
    49   46   47 1    
    50   46   48 1    
    51   48   49 1    
    52   49   50 1    
    53   49   51 1    
    54   51   52 1    
    55   51   53 1    
    56   51   54 1    
    57   54   55 1    
    58   54   56 1    
    59   56   57 1    
    60   56   58 1    
    61   58   59 1    
    62   58   60 1    
    63   60   61 1    
    64   60   62 1    
    65   60   63 1    
    66   63   64 1    
    67   63   72 1    
    68   64   65 1    
    69   64   66 1    
    70   66   67 1    
    71   66   68 1    
    72   68   69 1    
    73   68   70 1    
    74   70   71 1    
    75   70   72 1    
    76   72   73 1    
@<TRIPOS>SUBSTRUCTURE
     1 ****        1 GROUP             0       ****    0 ROOT    
@<TRIPOS>MOLECULE
Cpd3-3000
73   76    1
SMALL
USER_CHARGES


@<TRIPOS>ATOM
      1 C          -7.7210   -0.4769    0.3071 C.3       1 ****        0.0000 
      2 H          -8.7560   -0.4521    0.6621 H         1 ****        0.0000 
      3 H          -7.7329   -0.6841   -0.7678 H         1 ****        0.0000 
      4 H          -7.1918   -1.2788    0.8213 H         1 ****        0.0000 
      5 C          -7.0723    0.8782    0.5720 C.3       1 ****        0.0000 
      6 C          -6.9414    1.1785    2.0620 C.3       1 ****        0.0000 
      7 H          -7.9415    1.2753    2.4949 H         1 ****        0.0000 
      8 H          -6.4083    0.3826    2.5831 H         1 ****        0.0000 
      9 H          -6.4117    2.1246    2.2099 H         1 ****        0.0000 
     10 C          -7.8445    1.9880   -0.1322 C.3       1 ****        0.0000 
     11 H          -7.3537    2.9531    0.0247 H         1 ****        0.0000 
     12 H          -7.9014    1.7918   -1.2062 H         1 ****        0.0000 
     13 H          -8.8605    2.0418    0.2687 H         1 ****        0.0000 
     14 O          -5.7603    0.9434   -0.0709 O.3       1 ****        0.0000 
     15 C          -4.7731    0.1087    0.2903 C.3       1 ****        0.0000 
     16 O          -4.8470   -0.7672    1.1374 O.3       1 ****        0.0000 
     17 N          -3.6411    0.3878   -0.4147 N.3       1 ****        0.0000 
     18 H          -3.7112    1.0107   -1.2088 H         1 ****        0.0000 
     19 C          -2.4909   -0.4929   -0.3375 C.3       1 ****        0.0000 
     20 C          -1.2771    0.3473   -0.7366 C.3       1 ****        0.0000 
     21 N          -0.3172    0.5176    0.1935 N.3       1 ****        0.0000 
     22 H          -0.4202    0.1527    1.1335 H         1 ****        0.0000 
     23 O          -1.2121    0.8402   -1.8616 O.3       1 ****        0.0000 
     24 H          -2.4049   -0.8388    0.6965 H         1 ****        0.0000 
     25 C          -2.6416   -1.7121   -1.2754 C.3       1 ****        0.0000 
     26 H          -2.7606   -1.3352   -2.2964 H         1 ****        0.0000 
     27 H          -3.5605   -2.2312   -0.9874 H         1 ****        0.0000 
     28 C          -1.4484   -2.6258   -1.1772 C.3       1 ****        0.0000 
     29 C          -0.3254   -2.4027   -1.9841 C.3       1 ****        0.0000 
     30 C           0.8507   -3.1144   -1.7770 C.3       1 ****        0.0000 
     31 H           1.7417   -2.9103   -2.3650 H         1 ****        0.0000 
     32 H          -0.3645   -1.6368   -2.7542 H         1 ****        0.0000 
     33 C          -1.3923   -3.6367   -0.2130 C.3       1 ****        0.0000 
     34 H          -2.2643   -3.8358    0.4049 H         1 ****        0.0000 
     35 C          -0.2181   -4.3614    0.0031 C.3       1 ****        0.0000 
     36 H          -0.1530   -5.1133    0.7832 H         1 ****        0.0000 
     37 C           0.9048   -4.0582   -0.7538 C.3       1 ****        0.0000 
     38 O           2.1380   -4.6289   -0.4327 O.3       1 ****        0.0000 
     39 C           2.9817   -3.6667    0.0942 C.3       1 ****        0.0000 
     40 C           2.5465   -2.8856    1.1671 C.3       1 ****        0.0000 
     41 C           3.2942   -1.7864    1.5520 C.3       1 ****        0.0000 
     42 H           2.9160   -1.1424    2.3389 H         1 ****        0.0000 
     43 H           1.5945   -3.0988    1.6401 H         1 ****        0.0000 
     44 C           4.2217   -3.4455   -0.4997 C.3       1 ****        0.0000 
     45 H           4.5439   -4.0845   -1.3156 H         1 ****        0.0000 
     46 C           4.9804   -2.3513   -0.0878 C.3       1 ****        0.0000 
     47 H           5.9214   -2.1211   -0.5778 H         1 ****        0.0000 
     48 C           4.4952   -1.4852    0.8970 C.3       1 ****        0.0000 
     49 C           5.1849   -0.1911    1.1419 C.3       1 ****        0.0000 
     50 O           6.3809   -0.0388    0.9759 O.3       1 ****        0.0000 
     51 C           4.3036    1.0058    1.5307 C.3       1 ****        0.0000 
     52 H           3.9036    0.8718    2.5407 H         1 ****        0.0000 
     53 H           4.9304    1.8999    1.5156 H         1 ****        0.0000 
     54 N           3.1766    1.1574    0.6266 N.3       1 ****        0.0000 
     55 H           3.3686    1.4663   -0.3184 H         1 ****        0.0000 
     56 C           1.8866    1.0372    1.0065 C.3       1 ****        0.0000 
     57 O           1.5346    0.7343    2.1446 O.3       1 ****        0.0000 
     58 C           0.8477    1.3418   -0.0716 C.3       1 ****        0.0000 
     59 H           1.2318    1.0848   -1.0655 H         1 ****        0.0000 
     60 C           0.4873    2.8488   -0.0408 C.3       1 ****        0.0000 
     61 H           0.1312    3.0948    0.9652 H         1 ****        0.0000 
     62 H          -0.3397    2.9885   -0.7429 H         1 ****        0.0000 
     63 C           1.6612    3.7150   -0.4238 C.3       1 ****        0.0000 
     64 C           2.0672    3.7929   -1.7608 C.3       1 ****        0.0000 
     65 H           1.4904    3.2767   -2.5248 H         1 ****        0.0000 
     66 C           3.1971    4.5281   -2.1199 C.3       1 ****        0.0000 
     67 H           3.4991    4.5810   -3.1608 H         1 ****        0.0000 
     68 C           3.9349    5.1974   -1.1419 C.3       1 ****        0.0000 
     69 H           4.8138    5.7705   -1.4199 H         1 ****        0.0000 
     70 C           3.5328    5.1325    0.1921 C.3       1 ****        0.0000 
     71 H           4.0987    5.6547    0.9571 H         1 ****        0.0000 
     72 C           2.4050    4.3933    0.5471 C.3       1 ****        0.0000 
     73 H           2.0999    4.3353    1.5901 H         1 ****        0.0000 
@<TRIPOS>BOND
     1    1    2 1    
     2    1    3 1    
     3    1    4 1    
     4    1    5 1    
     5    5    6 1    
     6    5   10 1    
     7    5   14 1    
     8    6    7 1    
     9    6    8 1    
    10    6    9 1    
    11   10   11 1    
    12   10   12 1    
    13   10   13 1    
    14   14   15 1    
    15   15   16 1    
    16   15   17 1    
    17   17   18 1    
    18   17   19 1    
    19   19   20 1    
    20   19   24 1    
    21   19   25 1    
    22   20   21 1    
    23   20   23 1    
    24   21   22 1    
    25   21   58 1    
    26   25   26 1    
    27   25   27 1    
    28   25   28 1    
    29   28   29 1    
    30   28   33 1    
    31   29   30 1    
    32   29   32 1    
    33   30   31 1    
    34   30   37 1    
    35   33   34 1    
    36   33   35 1    
    37   35   36 1    
    38   35   37 1    
    39   37   38 1    
    40   38   39 1    
    41   39   40 1    
    42   39   44 1    
    43   40   41 1    
    44   40   43 1    
    45   41   42 1    
    46   41   48 1    
    47   44   45 1    
    48   44   46 1    
    49   46   47 1    
    50   46   48 1    
    51   48   49 1    
    52   49   50 1    
    53   49   51 1    
    54   51   52 1    
    55   51   53 1    
    56   51   54 1    
    57   54   55 1    
    58   54   56 1    
    59   56   57 1    
    60   56   58 1    
    61   58   59 1    
    62   58   60 1    
    63   60   61 1    
    64   60   62 1    
    65   60   63 1    
    66   63   64 1    
    67   63   72 1    
    68   64   65 1    
    69   64   66 1    
    70   66   67 1    
    71   66   68 1    
    72   68   69 1    
    73   68   70 1    
    74   70   71 1    
    75   70   72 1    
    76   72   73 1    
@<TRIPOS>SUBSTRUCTURE
     1 ****        1 GROUP             0       ****    0 ROOT    
@<TRIPOS>MOLECULE
Cpd3-3500
73   76    1
SMALL
USER_CHARGES


@<TRIPOS>ATOM
      1 C          -7.7211   -0.4771    0.3059 C.3       1 ****        0.0000 
      2 H          -7.1920   -1.2789    0.8212 H         1 ****        0.0000 
      3 H          -8.7562   -0.4523    0.6608 H         1 ****        0.0000 
      4 H          -7.7330   -0.6833   -0.7690 H         1 ****        0.0000 
      5 C          -7.0725    0.8781    0.5717 C.3       1 ****        0.0000 
      6 C          -6.9427    1.1785    2.0616 C.3       1 ****        0.0000 
      7 H          -6.4095    0.3827    2.5829 H         1 ****        0.0000 
      8 H          -6.4119    2.1246    2.2095 H         1 ****        0.0000 
      9 H          -7.9427    1.2753    2.4945 H         1 ****        0.0000 
     10 C          -7.8446    1.9878   -0.1326 C.3       1 ****        0.0000 
     11 H          -7.3539    2.9529    0.0242 H         1 ****        0.0000 
     12 H          -7.9005    1.7925   -1.2066 H         1 ****        0.0000 
     13 H          -8.8607    2.0416    0.2673 H         1 ****        0.0000 
     14 O          -5.7604    0.9423   -0.0712 O.3       1 ****        0.0000 
     15 C          -4.7733    0.1086    0.2901 C.3       1 ****        0.0000 
     16 O          -4.8471   -0.7683    1.1363 O.3       1 ****        0.0000 
     17 N          -3.6413    0.3877   -0.4139 N.3       1 ****        0.0000 
     18 H          -3.7113    1.0105   -1.2090 H         1 ****        0.0000 
     19 C          -2.4911   -0.4931   -0.3376 C.3       1 ****        0.0000 
     20 C          -1.2772    0.3471   -0.7357 C.3       1 ****        0.0000 
     21 N          -0.3173    0.5175    0.1934 N.3       1 ****        0.0000 
     22 H          -0.4203    0.1537    1.1334 H         1 ****        0.0000 
     23 O          -1.2132    0.8409   -1.8618 O.3       1 ****        0.0000 
     24 H          -2.4051   -0.8388    0.6965 H         1 ****        0.0000 
     25 C          -2.6417   -1.7113   -1.2753 C.3       1 ****        0.0000 
     26 H          -2.7607   -1.3356   -2.2964 H         1 ****        0.0000 
     27 H          -3.5606   -2.2304   -0.9873 H         1 ****        0.0000 
     28 C          -1.4485   -2.6260   -1.1770 C.3       1 ****        0.0000 
     29 C          -0.3255   -2.4029   -1.9840 C.3       1 ****        0.0000 
     30 C           0.8507   -3.1136   -1.7767 C.3       1 ****        0.0000 
     31 H           1.7417   -2.9106   -2.3637 H         1 ****        0.0000 
     32 H          -0.3646   -1.6361   -2.7532 H         1 ****        0.0000 
     33 C          -1.3924   -3.6368   -0.2128 C.3       1 ****        0.0000 
     34 H          -2.2644   -3.8359    0.4052 H         1 ****        0.0000 
     35 C          -0.2182   -4.3625    0.0024 C.3       1 ****        0.0000 
     36 H          -0.1531   -5.1133    0.7826 H         1 ****        0.0000 
     37 C           0.9048   -4.0584   -0.7545 C.3       1 ****        0.0000 
     38 O           2.1379   -4.6280   -0.4323 O.3       1 ****        0.0000 
     39 C           2.9826   -3.6667    0.0946 C.3       1 ****        0.0000 
     40 C           2.5463   -2.8846    1.1664 C.3       1 ****        0.0000 
     41 C           3.2941   -1.7863    1.5522 C.3       1 ****        0.0000 
     42 H           2.9158   -1.1423    2.3390 H         1 ****        0.0000 
     43 H           1.5944   -3.0987    1.6393 H         1 ****        0.0000 
     44 C           4.2226   -3.4466   -0.4994 C.3       1 ****        0.0000 
     45 H           4.5448   -4.0847   -1.3152 H         1 ****        0.0000 
     46 C           4.9803   -2.3513   -0.0875 C.3       1 ****        0.0000 
     47 H           5.9213   -2.1212   -0.5775 H         1 ****        0.0000 
     48 C           4.4951   -1.4862    0.8972 C.3       1 ****        0.0000 
     49 C           5.1857   -0.1910    1.1420 C.3       1 ****        0.0000 
     50 O           6.3807   -0.0388    0.9761 O.3       1 ****        0.0000 
     51 C           4.3034    1.0059    1.5307 C.3       1 ****        0.0000 
     52 H           3.9034    0.8730    2.5397 H         1 ****        0.0000 
     53 H           4.9302    1.9000    1.5145 H         1 ****        0.0000 
     54 N           3.1775    1.1574    0.6265 N.3       1 ****        0.0000 
     55 H           3.3685    1.4663   -0.3185 H         1 ****        0.0000 
     56 C           1.8865    1.0372    1.0064 C.3       1 ****        0.0000 
     57 O           1.5344    0.7344    2.1435 O.3       1 ****        0.0000 
     58 C           0.8475    1.3417   -0.0717 C.3       1 ****        0.0000 
     59 H           1.2306    1.0856   -1.0656 H         1 ****        0.0000 
     60 C           0.4882    2.8487   -0.0411 C.3       1 ****        0.0000 
     61 H           0.1320    3.0948    0.9648 H         1 ****        0.0000 
     62 H          -0.3398    2.9893   -0.7422 H         1 ****        0.0000 
     63 C           1.6620    3.7149   -0.4232 C.3       1 ****        0.0000 
     64 C           2.0671    3.7937   -1.7611 C.3       1 ****        0.0000 
     65 H           1.4893    3.2774   -2.5251 H         1 ****        0.0000 
     66 C           3.1970    4.5278   -2.1202 C.3       1 ****        0.0000 
     67 H           3.4980    4.5807   -3.1612 H         1 ****        0.0000 
     68 C           3.9347    5.1972   -1.1423 C.3       1 ****        0.0000 
     69 H           4.8136    5.7703   -1.4203 H         1 ****        0.0000 
     70 C           3.5336    5.1314    0.1917 C.3       1 ****        0.0000 
     71 H           4.0994    5.6547    0.9566 H         1 ****        0.0000 
     72 C           2.4048    4.3932    0.5468 C.3       1 ****        0.0000 
     73 H           2.1007    4.3354    1.5897 H         1 ****        0.0000 
@<TRIPOS>BOND
     1    1    2 1    
     2    1    3 1    
     3    1    4 1    
     4    1    5 1    
     5    5    6 1    
     6    5   10 1    
     7    5   14 1    
     8    6    7 1    
     9    6    8 1    
    10    6    9 1    
    11   10   11 1    
    12   10   12 1    
    13   10   13 1    
    14   14   15 1    
    15   15   16 1    
    16   15   17 1    
    17   17   18 1    
    18   17   19 1    
    19   19   20 1    
    20   19   24 1    
    21   19   25 1    
    22   20   21 1    
    23   20   23 1    
    24   21   22 1    
    25   21   58 1    
    26   25   26 1    
    27   25   27 1    
    28   25   28 1    
    29   28   29 1    
    30   28   33 1    
    31   29   30 1    
    32   29   32 1    
    33   30   31 1    
    34   30   37 1    
    35   33   34 1    
    36   33   35 1    
    37   35   36 1    
    38   35   37 1    
    39   37   38 1    
    40   38   39 1    
    41   39   40 1    
    42   39   44 1    
    43   40   41 1    
    44   40   43 1    
    45   41   42 1    
    46   41   48 1    
    47   44   45 1    
    48   44   46 1    
    49   46   47 1    
    50   46   48 1    
    51   48   49 1    
    52   49   50 1    
    53   49   51 1    
    54   51   52 1    
    55   51   53 1    
    56   51   54 1    
    57   54   55 1    
    58   54   56 1    
    59   56   57 1    
    60   56   58 1    
    61   58   59 1    
    62   58   60 1    
    63   60   61 1    
    64   60   62 1    
    65   60   63 1    
    66   63   64 1    
    67   63   72 1    
    68   64   65 1    
    69   64   66 1    
    70   66   67 1    
    71   66   68 1    
    72   68   69 1    
    73   68   70 1    
    74   70   71 1    
    75   70   72 1    
    76   72   73 1    
@<TRIPOS>SUBSTRUCTURE
     1 ****        1 GROUP             0       ****    0 ROOT    
@<TRIPOS>MOLECULE
Cpd3-4000
73   76    1
SMALL
USER_CHARGES


@<TRIPOS>ATOM
      1 C          -5.4839    2.7503    2.6138 C.3       1 ****        0.0000 
      2 H          -5.8546    3.5933    3.2042 H         1 ****        0.0000 
      3 H          -6.2999    2.0317    2.4925 H         1 ****        0.0000 
      4 H          -4.6635    2.2763    3.1536 H         1 ****        0.0000 
      5 C          -5.0292    3.2622    1.2502 C.3       1 ****        0.0000 
      6 C          -3.8275    4.1974    1.3479 C.3       1 ****        0.0000 
      7 H          -3.4860    4.4762    0.3458 H         1 ****        0.0000 
      8 H          -4.1277    5.1083    1.8735 H         1 ****        0.0000 
      9 H          -3.0045    3.7320    1.8916 H         1 ****        0.0000 
     10 C          -6.1822    3.9441    0.5227 C.3       1 ****        0.0000 
     11 H          -5.8647    4.2748   -0.4707 H         1 ****        0.0000 
     12 H          -7.0240    3.2566    0.4129 H         1 ****        0.0000 
     13 H          -6.5129    4.8156    1.0926 H         1 ****        0.0000 
     14 O          -4.7167    2.1354    0.3700 O.3       1 ****        0.0000 
     15 C          -3.7190    1.2901    0.6632 C.3       1 ****        0.0000 
     16 O          -3.0124    1.3285    1.6580 O.3       1 ****        0.0000 
     17 N          -3.6016    0.3342   -0.3071 N.3       1 ****        0.0000 
     18 H          -4.0512    0.5274   -1.1932 H         1 ****        0.0000 
     19 C          -2.4340   -0.5296   -0.3058 C.3       1 ****        0.0000 
     20 C          -1.2009    0.2862   -0.7286 C.3       1 ****        0.0000 
     21 N          -0.2806    0.5151    0.2323 N.3       1 ****        0.0000 
     22 H          -0.5011    0.3081    1.2007 H         1 ****        0.0000 
     23 O          -1.0886    0.7043   -1.8791 O.3       1 ****        0.0000 
     24 H          -2.3010   -0.9035    0.7137 H         1 ****        0.0000 
     25 C          -2.6500   -1.7135   -1.2611 C.3       1 ****        0.0000 
     26 H          -2.7764   -1.3254   -2.2771 H         1 ****        0.0000 
     27 H          -3.5743   -2.2208   -0.9661 H         1 ****        0.0000 
     28 C          -1.4698   -2.6511   -1.1952 C.3       1 ****        0.0000 
     29 C          -0.3569   -2.4405   -2.0177 C.3       1 ****        0.0000 
     30 C           0.8205   -3.1501   -1.8132 C.3       1 ****        0.0000 
     31 H           1.7080   -2.9497   -2.4056 H         1 ****        0.0000 
     32 H          -0.4004   -1.6760   -2.7886 H         1 ****        0.0000 
     33 C          -1.4087   -3.6582   -0.2267 C.3       1 ****        0.0000 
     34 H          -2.2745   -3.8500    0.4026 H         1 ****        0.0000 
     35 C          -0.2352   -4.3824   -0.0147 C.3       1 ****        0.0000 
     36 H          -0.1637   -5.1261    0.7733 H         1 ****        0.0000 
     37 C           0.8840   -4.0796   -0.7782 C.3       1 ****        0.0000 
     38 O           2.1238   -4.6290   -0.4487 O.3       1 ****        0.0000 
     39 C           2.9545   -3.6536    0.0755 C.3       1 ****        0.0000 
     40 C           2.4957   -2.8427    1.1157 C.3       1 ****        0.0000 
     41 C           3.2446   -1.7442    1.5008 C.3       1 ****        0.0000 
     42 H           2.8517   -1.0836    2.2672 H         1 ****        0.0000 
     43 H           1.5278   -3.0344    1.5659 H         1 ****        0.0000 
     44 C           4.2122   -3.4557   -0.4889 C.3       1 ****        0.0000 
     45 H           4.5521   -4.1148   -1.2810 H         1 ****        0.0000 
     46 C           4.9693   -2.3597   -0.0781 C.3       1 ****        0.0000 
     47 H           5.9269   -2.1493   -0.5443 H         1 ****        0.0000 
     48 C           4.4674   -1.4703    0.8772 C.3       1 ****        0.0000 
     49 C           5.1772   -0.1884    1.1330 C.3       1 ****        0.0000 
     50 O           6.3762   -0.0580    0.9742 O.3       1 ****        0.0000 
     51 C           4.3208    1.0225    1.5357 C.3       1 ****        0.0000 
     52 H           3.9332    0.8903    2.5506 H         1 ****        0.0000 
     53 H           4.9651    1.9045    1.5167 H         1 ****        0.0000 
     54 N           3.1826    1.1981    0.6523 N.3       1 ****        0.0000 
     55 H           3.3636    1.4765   -0.3043 H         1 ****        0.0000 
     56 C           1.8973    1.1186    1.0595 C.3       1 ****        0.0000 
     57 O           1.5624    0.8576    2.2123 O.3       1 ****        0.0000 
     58 C           0.8410    1.4021   -0.0073 C.3       1 ****        0.0000 
     59 H           1.2303    1.1898   -1.0071 H         1 ****        0.0000 
     60 C           0.4022    2.8856    0.0668 C.3       1 ****        0.0000 
     61 H          -0.0130    3.0664    1.0635 H         1 ****        0.0000 
     62 H          -0.3991    3.0154   -0.6673 H         1 ****        0.0000 
     63 C           1.5492    3.8216   -0.2191 C.3       1 ****        0.0000 
     64 C           1.9858    4.0181   -1.5343 C.3       1 ****        0.0000 
     65 H           1.4480    3.5440   -2.3521 H         1 ****        0.0000 
     66 C           3.0967    4.8179   -1.8020 C.3       1 ****        0.0000 
     67 H           3.4219    4.9642   -2.8279 H         1 ****        0.0000 
     68 C           3.7848    5.4321   -0.7555 C.3       1 ****        0.0000 
     69 H           4.6492    6.0552   -0.9634 H         1 ****        0.0000 
     70 C           3.3539    5.2464    0.5578 C.3       1 ****        0.0000 
     71 H           3.8815    5.7247    1.3771 H         1 ****        0.0000 
     72 C           2.2437    4.4443    0.8222 C.3       1 ****        0.0000 
     73 H           1.9157    4.2926    1.8487 H         1 ****        0.0000 
@<TRIPOS>BOND
     1    1    2 1    
     2    1    3 1    
     3    1    4 1    
     4    1    5 1    
     5    5    6 1    
     6    5   10 1    
     7    5   14 1    
     8    6    7 1    
     9    6    8 1    
    10    6    9 1    
    11   10   11 1    
    12   10   12 1    
    13   10   13 1    
    14   14   15 1    
    15   15   16 1    
    16   15   17 1    
    17   17   18 1    
    18   17   19 1    
    19   19   20 1    
    20   19   24 1    
    21   19   25 1    
    22   20   21 1    
    23   20   23 1    
    24   21   22 1    
    25   21   58 1    
    26   25   26 1    
    27   25   27 1    
    28   25   28 1    
    29   28   29 1    
    30   28   33 1    
    31   29   30 1    
    32   29   32 1    
    33   30   31 1    
    34   30   37 1    
    35   33   34 1    
    36   33   35 1    
    37   35   36 1    
    38   35   37 1    
    39   37   38 1    
    40   38   39 1    
    41   39   40 1    
    42   39   44 1    
    43   40   41 1    
    44   40   43 1    
    45   41   42 1    
    46   41   48 1    
    47   44   45 1    
    48   44   46 1    
    49   46   47 1    
    50   46   48 1    
    51   48   49 1    
    52   49   50 1    
    53   49   51 1    
    54   51   52 1    
    55   51   53 1    
    56   51   54 1    
    57   54   55 1    
    58   54   56 1    
    59   56   57 1    
    60   56   58 1    
    61   58   59 1    
    62   58   60 1    
    63   60   61 1    
    64   60   62 1    
    65   60   63 1    
    66   63   64 1    
    67   63   72 1    
    68   64   65 1    
    69   64   66 1    
    70   66   67 1    
    71   66   68 1    
    72   68   69 1    
    73   68   70 1    
    74   70   71 1    
    75   70   72 1    
    76   72   73 1    
@<TRIPOS>SUBSTRUCTURE
     1 ****        1 GROUP             0       ****    0 ROOT    
@<TRIPOS>MOLECULE
Cpd3-4500
73   76    1
SMALL
USER_CHARGES


@<TRIPOS>ATOM
      1 C          -6.9420    1.1804    2.0620 C.3       1 ****        0.0000 
      2 H          -7.9431    1.2767    2.4939 H         1 ****        0.0000 
      3 H          -6.4091    0.3847    2.5824 H         1 ****        0.0000 
      4 H          -6.4130    2.1265    2.2096 H         1 ****        0.0000 
      5 C          -7.0719    0.8808    0.5711 C.3       1 ****        0.0000 
      6 C          -7.8438    1.9905   -0.1325 C.3       1 ****        0.0000 
      7 H          -8.8598    2.0447    0.2674 H         1 ****        0.0000 
      8 H          -7.3537    2.9555    0.0241 H         1 ****        0.0000 
      9 H          -7.8998    1.7950   -1.2074 H         1 ****        0.0000 
     10 C          -7.7210   -0.4743    0.3047 C.3       1 ****        0.0000 
     11 H          -7.7320   -0.6808   -0.7692 H         1 ****        0.0000 
     12 H          -7.1921   -1.2761    0.8201 H         1 ****        0.0000 
     13 H          -8.7561   -0.4491    0.6586 H         1 ****        0.0000 
     14 O          -5.7599    0.9454   -0.0708 O.3       1 ****        0.0000 
     15 C          -4.7730    0.1095    0.2896 C.3       1 ****        0.0000 
     16 O          -4.8481   -0.7661    1.1360 O.3       1 ****        0.0000 
     17 N          -3.6419    0.3880   -0.4154 N.3       1 ****        0.0000 
     18 H          -3.7108    1.0127   -1.2087 H         1 ****        0.0000 
     19 C          -2.4920   -0.4930   -0.3379 C.3       1 ****        0.0000 
     20 C          -1.2769    0.3477   -0.7362 C.3       1 ****        0.0000 
     21 N          -0.3169    0.5181    0.1927 N.3       1 ****        0.0000 
     22 H          -0.4200    0.1525    1.1329 H         1 ****        0.0000 
     23 O          -1.2128    0.8402   -1.8625 O.3       1 ****        0.0000 
     24 H          -2.4051   -0.8375    0.6962 H         1 ****        0.0000 
     25 C          -2.6420   -1.7114   -1.2754 C.3       1 ****        0.0000 
     26 H          -2.7609   -1.3349   -2.2965 H         1 ****        0.0000 
     27 H          -3.5611   -2.2302   -0.9872 H         1 ****        0.0000 
     28 C          -1.4481   -2.6255   -1.1768 C.3       1 ****        0.0000 
     29 C          -0.3250   -2.4030   -1.9839 C.3       1 ****        0.0000 
     30 C           0.8509   -3.1129   -1.7765 C.3       1 ****        0.0000 
     31 H           1.7420   -2.9103   -2.3635 H         1 ****        0.0000 
     32 H          -0.3639   -1.6363   -2.7532 H         1 ****        0.0000 
     33 C          -1.3922   -3.6360   -0.2124 C.3       1 ****        0.0000 
     34 H          -2.2643   -3.8347    0.4057 H         1 ****        0.0000 
     35 C          -0.2183   -4.3620    0.0031 C.3       1 ****        0.0000 
     36 H          -0.1534   -5.1127    0.7834 H         1 ****        0.0000 
     37 C           0.9048   -4.0575   -0.7540 C.3       1 ****        0.0000 
     38 O           2.1377   -4.6284   -0.4327 O.3       1 ****        0.0000 
     39 C           2.9827   -3.6662    0.0950 C.3       1 ****        0.0000 
     40 C           2.5477   -2.8857    1.1676 C.3       1 ****        0.0000 
     41 C           3.2948   -1.7866    1.5531 C.3       1 ****        0.0000 
     42 H           2.9168   -1.1422    2.3398 H         1 ****        0.0000 
     43 H           1.5947   -3.0994    1.6406 H         1 ****        0.0000 
     44 C           4.2218   -3.4456   -0.5001 C.3       1 ****        0.0000 
     45 H           4.5438   -4.0830   -1.3167 H         1 ****        0.0000 
     46 C           4.9799   -2.3505   -0.0885 C.3       1 ****        0.0000 
     47 H           5.9209   -2.1198   -0.5786 H         1 ****        0.0000 
     48 C           4.4949   -1.4860    0.8970 C.3       1 ****        0.0000 
     49 C           5.1849   -0.1909    1.1425 C.3       1 ****        0.0000 
     50 O           6.3810   -0.0391    0.9755 O.3       1 ****        0.0000 
     51 C           4.3030    1.0053    1.5308 C.3       1 ****        0.0000 
     52 H           3.9029    0.8729    2.5399 H         1 ****        0.0000 
     53 H           4.9301    1.9003    1.5145 H         1 ****        0.0000 
     54 N           3.1771    1.1570    0.6267 N.3       1 ****        0.0000 
     55 H           3.3682    1.4666   -0.3184 H         1 ****        0.0000 
     56 C           1.8870    1.0363    1.0057 C.3       1 ****        0.0000 
     57 O           1.5339    0.7328    2.1438 O.3       1 ****        0.0000 
     58 C           0.8471    1.3409   -0.0716 C.3       1 ****        0.0000 
     59 H           1.2312    1.0844   -1.0654 H         1 ****        0.0000 
     60 C           0.4882    2.8489   -0.0423 C.3       1 ****        0.0000 
     61 H           0.1332    3.0954    0.9636 H         1 ****        0.0000 
     62 H          -0.3387    2.9886   -0.7434 H         1 ****        0.0000 
     63 C           1.6623    3.7136   -0.4246 C.3       1 ****        0.0000 
     64 C           2.0684    3.7920   -1.7626 C.3       1 ****        0.0000 
     65 H           1.4905    3.2757   -2.5264 H         1 ****        0.0000 
     66 C           3.1975    4.5257   -2.1219 C.3       1 ****        0.0000 
     67 H           3.4996    4.5782   -3.1639 H         1 ****        0.0000 
     68 C           3.9355    5.1951   -1.1452 C.3       1 ****        0.0000 
     69 H           4.8146    5.7679   -1.4234 H         1 ****        0.0000 
     70 C           3.5344    5.1308    0.1888 C.3       1 ****        0.0000 
     71 H           4.1014    5.6531    0.9536 H         1 ****        0.0000 
     72 C           2.4063    4.3930    0.5451 C.3       1 ****        0.0000 
     73 H           2.1022    4.3355    1.5881 H         1 ****        0.0000 
@<TRIPOS>BOND
     1    1    2 1    
     2    1    3 1    
     3    1    4 1    
     4    1    5 1    
     5    5    6 1    
     6    5   10 1    
     7    5   14 1    
     8    6    7 1    
     9    6    8 1    
    10    6    9 1    
    11   10   11 1    
    12   10   12 1    
    13   10   13 1    
    14   14   15 1    
    15   15   16 1    
    16   15   17 1    
    17   17   18 1    
    18   17   19 1    
    19   19   20 1    
    20   19   24 1    
    21   19   25 1    
    22   20   21 1    
    23   20   23 1    
    24   21   22 1    
    25   21   58 1    
    26   25   26 1    
    27   25   27 1    
    28   25   28 1    
    29   28   29 1    
    30   28   33 1    
    31   29   30 1    
    32   29   32 1    
    33   30   31 1    
    34   30   37 1    
    35   33   34 1    
    36   33   35 1    
    37   35   36 1    
    38   35   37 1    
    39   37   38 1    
    40   38   39 1    
    41   39   40 1    
    42   39   44 1    
    43   40   41 1    
    44   40   43 1    
    45   41   42 1    
    46   41   48 1    
    47   44   45 1    
    48   44   46 1    
    49   46   47 1    
    50   46   48 1    
    51   48   49 1    
    52   49   50 1    
    53   49   51 1    
    54   51   52 1    
    55   51   53 1    
    56   51   54 1    
    57   54   55 1    
    58   54   56 1    
    59   56   57 1    
    60   56   58 1    
    61   58   59 1    
    62   58   60 1    
    63   60   61 1    
    64   60   62 1    
    65   60   63 1    
    66   63   64 1    
    67   63   72 1    
    68   64   65 1    
    69   64   66 1    
    70   66   67 1    
    71   66   68 1    
    72   68   69 1    
    73   68   70 1    
    74   70   71 1    
    75   70   72 1    
    76   72   73 1    
@<TRIPOS>SUBSTRUCTURE
     1 ****        1 GROUP             0       ****    0 ROOT    
@<TRIPOS>MOLECULE
Cpd3-5000
73   76    1
SMALL
USER_CHARGES


@<TRIPOS>ATOM
      1 C          -3.8286    4.1984    1.3442 C.3       1 ****        0.0000 
      2 H          -4.1284    5.1101    1.8707 H         1 ****        0.0000 
      3 H          -3.0052    3.7339    1.8882 H         1 ****        0.0000 
      4 H          -3.4878    4.4775    0.3422 H         1 ****        0.0000 
      5 C          -5.0303    3.2631    1.2474 C.3       1 ****        0.0000 
      6 C          -6.1831    3.9448    0.5206 C.3       1 ****        0.0000 
      7 H          -6.5140    4.8164    1.0904 H         1 ****        0.0000 
      8 H          -5.8664    4.2736   -0.4730 H         1 ****        0.0000 
      9 H          -7.0254    3.2563    0.4117 H         1 ****        0.0000 
     10 C          -5.4834    2.7525    2.6121 C.3       1 ****        0.0000 
     11 H          -6.2989    2.0325    2.4917 H         1 ****        0.0000 
     12 H          -4.6631    2.2787    3.1512 H         1 ****        0.0000 
     13 H          -5.8546    3.5948    3.2023 H         1 ****        0.0000 
     14 O          -4.7167    2.1355    0.3683 O.3       1 ****        0.0000 
     15 C          -3.7196    1.2917    0.6620 C.3       1 ****        0.0000 
     16 O          -3.0123    1.3298    1.6559 O.3       1 ****        0.0000 
     17 N          -3.6016    0.3343   -0.3082 N.3       1 ****        0.0000 
     18 H          -4.0524    0.5270   -1.1945 H         1 ****        0.0000 
     19 C          -2.4340   -0.5296   -0.3066 C.3       1 ****        0.0000 
     20 C          -1.2008    0.2860   -0.7284 C.3       1 ****        0.0000 
     21 N          -0.2807    0.5153    0.2316 N.3       1 ****        0.0000 
     22 H          -0.5009    0.3070    1.1999 H         1 ****        0.0000 
     23 O          -1.0887    0.7054   -1.8798 O.3       1 ****        0.0000 
     24 H          -2.3020   -0.9029    0.7140 H         1 ****        0.0000 
     25 C          -2.6507   -1.7132   -1.2608 C.3       1 ****        0.0000 
     26 H          -2.7761   -1.3256   -2.2779 H         1 ****        0.0000 
     27 H          -3.5742   -2.2208   -0.9669 H         1 ****        0.0000 
     28 C          -1.4692   -2.6504   -1.1946 C.3       1 ****        0.0000 
     29 C          -0.3562   -2.4398   -2.0178 C.3       1 ****        0.0000 
     30 C           0.8212   -3.1495   -1.8121 C.3       1 ****        0.0000 
     31 H           1.7079   -2.9487   -2.4053 H         1 ****        0.0000 
     32 H          -0.3995   -1.6755   -2.7879 H         1 ****        0.0000 
     33 C          -1.4088   -3.6581   -0.2270 C.3       1 ****        0.0000 
     34 H          -2.2747   -3.8497    0.4013 H         1 ****        0.0000 
     35 C          -0.2353   -4.3823   -0.0146 C.3       1 ****        0.0000 
     36 H          -0.1639   -5.1258    0.7725 H         1 ****        0.0000 
     37 C           0.8840   -4.0797   -0.7780 C.3       1 ****        0.0000 
     38 O           2.1238   -4.6291   -0.4483 O.3       1 ****        0.0000 
     39 C           2.9544   -3.6536    0.0760 C.3       1 ****        0.0000 
     40 C           2.4964   -2.8430    1.1159 C.3       1 ****        0.0000 
     41 C           3.2451   -1.7445    1.5019 C.3       1 ****        0.0000 
     42 H           2.8522   -1.0839    2.2682 H         1 ****        0.0000 
     43 H           1.5283   -3.0347    1.5670 H         1 ****        0.0000 
     44 C           4.2122   -3.4556   -0.4893 C.3       1 ****        0.0000 
     45 H           4.5513   -4.1144   -1.2812 H         1 ****        0.0000 
     46 C           4.9692   -2.3596   -0.0786 C.3       1 ****        0.0000 
     47 H           5.9268   -2.1492   -0.5457 H         1 ****        0.0000 
     48 C           4.4681   -1.4706    0.8775 C.3       1 ****        0.0000 
     49 C           5.1769   -0.1882    1.1323 C.3       1 ****        0.0000 
     50 O           6.3760   -0.0577    0.9736 O.3       1 ****        0.0000 
     51 C           4.3201    1.0219    1.5356 C.3       1 ****        0.0000 
     52 H           3.9337    0.8902    2.5504 H         1 ****        0.0000 
     53 H           4.9643    1.9038    1.5165 H         1 ****        0.0000 
     54 N           3.1825    1.1982    0.6521 N.3       1 ****        0.0000 
     55 H           3.3636    1.4765   -0.3046 H         1 ****        0.0000 
     56 C           1.8966    1.1179    1.0590 C.3       1 ****        0.0000 
     57 O           1.5624    0.8565    2.2127 O.3       1 ****        0.0000 
     58 C           0.8405    1.4011   -0.0070 C.3       1 ****        0.0000 
     59 H           1.2308    1.1884   -1.0078 H         1 ****        0.0000 
     60 C           0.4030    2.8852    0.0658 C.3       1 ****        0.0000 
     61 H          -0.0137    3.0657    1.0634 H         1 ****        0.0000 
     62 H          -0.3995    3.0144   -0.6674 H         1 ****        0.0000 
     63 C           1.5497    3.8202   -0.2191 C.3       1 ****        0.0000 
     64 C           1.9860    4.0179   -1.5341 C.3       1 ****        0.0000 
     65 H           1.4479    3.5427   -2.3520 H         1 ****        0.0000 
     66 C           3.0966    4.8168   -1.8028 C.3       1 ****        0.0000 
     67 H           3.4219    4.9630   -2.8288 H         1 ****        0.0000 
     68 C           3.7849    5.4320   -0.7562 C.3       1 ****        0.0000 
     69 H           4.6485    6.0555   -0.9640 H         1 ****        0.0000 
     70 C           3.3538    5.2465    0.5570 C.3       1 ****        0.0000 
     71 H           3.8813    5.7250    1.3763 H         1 ****        0.0000 
     72 C           2.2445    4.4439    0.8223 C.3       1 ****        0.0000 
     73 H           1.9154    4.2929    1.8478 H         1 ****        0.0000 
@<TRIPOS>BOND
     1    1    2 1    
     2    1    3 1    
     3    1    4 1    
     4    1    5 1    
     5    5    6 1    
     6    5   10 1    
     7    5   14 1    
     8    6    7 1    
     9    6    8 1    
    10    6    9 1    
    11   10   11 1    
    12   10   12 1    
    13   10   13 1    
    14   14   15 1    
    15   15   16 1    
    16   15   17 1    
    17   17   18 1    
    18   17   19 1    
    19   19   20 1    
    20   19   24 1    
    21   19   25 1    
    22   20   21 1    
    23   20   23 1    
    24   21   22 1    
    25   21   58 1    
    26   25   26 1    
    27   25   27 1    
    28   25   28 1    
    29   28   29 1    
    30   28   33 1    
    31   29   30 1    
    32   29   32 1    
    33   30   31 1    
    34   30   37 1    
    35   33   34 1    
    36   33   35 1    
    37   35   36 1    
    38   35   37 1    
    39   37   38 1    
    40   38   39 1    
    41   39   40 1    
    42   39   44 1    
    43   40   41 1    
    44   40   43 1    
    45   41   42 1    
    46   41   48 1    
    47   44   45 1    
    48   44   46 1    
    49   46   47 1    
    50   46   48 1    
    51   48   49 1    
    52   49   50 1    
    53   49   51 1    
    54   51   52 1    
    55   51   53 1    
    56   51   54 1    
    57   54   55 1    
    58   54   56 1    
    59   56   57 1    
    60   56   58 1    
    61   58   59 1    
    62   58   60 1    
    63   60   61 1    
    64   60   62 1    
    65   60   63 1    
    66   63   64 1    
    67   63   72 1    
    68   64   65 1    
    69   64   66 1    
    70   66   67 1    
    71   66   68 1    
    72   68   69 1    
    73   68   70 1    
    74   70   71 1    
    75   70   72 1    
    76   72   73 1    
@<TRIPOS>SUBSTRUCTURE
     1 ****        1 GROUP             0       ****    0 ROOT    
