@<TRIPOS>MOLECULE
Cpd4-500
96   97    1
SMALL
USER_CHARGES


@<TRIPOS>ATOM
      1 C1         -4.9737   -0.7353   -3.4601 C.3       1 UNK         0.0000 
      2 H2         -3.9731   -0.8628   -3.8755 H         1 UNK         0.0000 
      3 H3         -5.6789   -1.3227   -4.0553 H         1 UNK         0.0000 
      4 H4         -5.2610    0.3185   -3.5292 H         1 UNK         0.0000 
      5 C5         -5.0358   -1.2022   -2.0083 C.3       1 UNK         0.0000 
      6 C6         -4.5392   -2.6347   -1.8382 C.3       1 UNK         0.0000 
      7 H7         -5.1622   -3.2951   -2.4499 H         1 UNK         0.0000 
      8 H8         -3.5000   -2.7356   -2.1557 H         1 UNK         0.0000 
      9 H9         -4.6264   -2.9446   -0.7931 H         1 UNK         0.0000 
     10 C10        -6.4532   -1.0689   -1.4628 C.3       1 UNK         0.0000 
     11 H11        -6.4768   -1.3468   -0.4047 H         1 UNK         0.0000 
     12 H12        -6.8103   -0.0402   -1.5671 H         1 UNK         0.0000 
     13 H13        -7.1253   -1.7317   -2.0144 H         1 UNK         0.0000 
     14 O14        -4.2809   -0.2801   -1.1608 O.3       1 UNK         0.0000 
     15 C15        -2.9702   -0.0652   -1.3573 C.2       1 UNK         0.0000 
     16 O16        -2.2568   -0.6813   -2.1438 O.2       1 UNK         0.0000 
     17 N17        -2.5292    0.9461   -0.5702 N.am      1 UNK         0.0000 
     18 H18        -3.1520    1.3625    0.1348 H         1 UNK         0.0000 
     19 C19        -1.1431    1.3626   -0.6371 C.3       1 UNK         0.0000 
     20 C20        -0.3084    0.4710    0.2964 C.2       1 UNK         0.0000 
     21 N21         0.3298   -0.5510   -0.3085 N.am      1 UNK         0.0000 
     22 H22         0.1281   -0.7467   -1.2844 H         1 UNK         0.0000 
     23 O23        -0.2632    0.6675    1.5124 O.2       1 UNK         0.0000 
     24 H24        -0.8031    1.2133   -1.6670 H         1 UNK         0.0000 
     25 C25        -0.9798    2.8455   -0.2693 C.3       1 UNK         0.0000 
     26 H26        -1.2627    2.9905    0.7779 H         1 UNK         0.0000 
     27 H27        -1.6587    3.4278   -0.9005 H         1 UNK         0.0000 
     28 C28         0.4602    3.2339   -0.5066 C.ar      1 UNK         0.0000 
     29 C29         0.9073    3.5295   -1.7991 C.ar      1 UNK         0.0000 
     30 C30         2.2699    3.5865   -2.0950 C.ar      1 UNK         0.0000 
     31 H31         2.6210    3.7346   -3.1114 H         1 UNK         0.0000 
     32 H32         0.1839    3.6509   -2.6016 H         1 UNK         0.0000 
     33 C33         1.4036    3.1280    0.5221 C.ar      1 UNK         0.0000 
     34 H34         1.0646    2.9375    1.5363 H         1 UNK         0.0000 
     35 C35         2.7646    3.1780    0.2391 C.ar      1 UNK         0.0000 
     36 H36         3.5133    3.0389    1.0133 H         1 UNK         0.0000 
     37 C37         3.1817    3.3317   -1.0790 C.ar      1 UNK         0.0000 
     38 O38         4.5235    3.0914   -1.3800 O.3       1 UNK         0.0000 
     39 C39         4.7985    1.7356   -1.3574 C.ar      1 UNK         0.0000 
     40 C40         5.9651    1.2972   -0.7317 C.ar      1 UNK         0.0000 
     41 C41         6.1883   -0.0723   -0.5993 C.ar      1 UNK         0.0000 
     42 H42         7.0701   -0.4336   -0.0779 H         1 UNK         0.0000 
     43 H43         6.6532    2.0242   -0.3129 H         1 UNK         0.0000 
     44 C44         3.9083    0.8216   -1.9300 C.ar      1 UNK         0.0000 
     45 H45         3.0242    1.1687   -2.4515 H         1 UNK         0.0000 
     46 C46         4.1319   -0.5359   -1.7762 C.ar      1 UNK         0.0000 
     47 H47         3.4180   -1.2333   -2.2035 H         1 UNK         0.0000 
     48 C48         5.2524   -0.9974   -1.0759 C.ar      1 UNK         0.0000 
     49 C49         5.4162   -2.4472   -0.7801 C.2       1 UNK         0.0000 
     50 O50         6.5018   -2.9367   -0.5227 O.2       1 UNK         0.0000 
     51 C51         4.1562   -3.3251   -0.7567 C.3       1 UNK         0.0000 
     52 H52         3.7893   -3.4754   -1.7773 H         1 UNK         0.0000 
     53 H53         4.4481   -4.2944   -0.3462 H         1 UNK         0.0000 
     54 N54         3.0949   -2.7207    0.0249 N.am      1 UNK         0.0000 
     55 H55         3.3415   -2.3525    0.9532 H         1 UNK         0.0000 
     56 C56         1.9120   -2.3504   -0.5001 C.2       1 UNK         0.0000 
     57 O57         1.5588   -2.5810   -1.6592 O.2       1 UNK         0.0000 
     58 C58         0.9990   -1.5896    0.4574 C.3       1 UNK         0.0000 
     59 H59         1.6072   -1.1057    1.2252 H         1 UNK         0.0000 
     60 C60        -0.0092   -2.5094    1.1708 C.3       1 UNK         0.0000 
     61 H61        -0.5150   -1.8794    1.9084 H         1 UNK         0.0000 
     62 H62         0.5393   -3.2753    1.7299 H         1 UNK         0.0000 
     63 C63        -1.0455   -3.1512    0.2324 C.3       1 UNK         0.0000 
     64 H64        -1.1865   -2.5106   -0.6481 H         1 UNK         0.0000 
     65 H65        -0.6852   -4.1169   -0.1351 H         1 UNK         0.0000 
     66 C66        -2.3972   -3.3164    0.8878 C.ar      1 UNK         0.0000 
     67 C67        -3.0798   -2.1874    1.3613 C.ar      1 UNK         0.0000 
     68 H68        -2.6170   -1.2045    1.2749 H         1 UNK         0.0000 
     69 C69        -4.3519   -2.2991    1.9155 C.ar      1 UNK         0.0000 
     70 H70        -4.8697   -1.4088    2.2607 H         1 UNK         0.0000 
     71 C71        -4.9664   -3.5503    2.0104 C.ar      1 UNK         0.0000 
     72 H72        -5.9603   -3.6401    2.4376 H         1 UNK         0.0000 
     73 C73        -4.2944   -4.6818    1.5503 C.ar      1 UNK         0.0000 
     74 H74        -4.7630   -5.6589    1.6203 H         1 UNK         0.0000 
     75 C75        -3.0181   -4.5630    0.9941 C.ar      1 UNK         0.0000 
     76 H76        -2.5037   -5.4482    0.6283 H         1 UNK         0.0000 
     77 C77         5.4200    0.7326    2.8190 C.3       1 UNK         0.0000 
     78 H78         5.3901    0.4755    3.8798 H         1 UNK         0.0000 
     79 H79         5.5181    1.8105    2.6742 H         1 UNK         0.0000 
     80 H80         6.2406    0.2154    2.3210 H         1 UNK         0.0000 
     81 S81         3.8969    0.1636    2.0417 S.3       1 UNK         0.0000 
     82 C82         2.7213    0.9278    3.1780 C.3       1 UNK         0.0000 
     83 H83         2.8880    2.0074    3.2008 H         1 UNK         0.0000 
     84 H84         2.8790    0.4930    4.1676 H         1 UNK         0.0000 
     85 H85         1.7155    0.7125    2.8062 H         1 UNK         0.0000 
     86 O86         3.8316   -1.3418    2.3663 O.2       1 UNK         0.0000 
     87 C87        -4.3353    4.8974    1.8211 C.3       1 UNK         0.0000 
     88 H88        -3.2600    5.0633    1.7483 H         1 UNK         0.0000 
     89 H89        -4.6122    4.6144    2.8387 H         1 UNK         0.0000 
     90 H90        -4.8740    5.7903    1.4986 H         1 UNK         0.0000 
     91 S91        -4.7374    3.5334    0.7142 S.3       1 UNK         0.0000 
     92 C92        -6.4940    3.4009    1.0953 C.3       1 UNK         0.0000 
     93 H93        -6.6077    3.2427    2.1695 H         1 UNK         0.0000 
     94 H94        -6.8787    2.5460    0.5385 H         1 UNK         0.0000 
     95 H95        -6.9980    4.3147    0.7747 H         1 UNK         0.0000 
     96 O96        -4.0898    2.2937    1.3555 O.2       1 UNK         0.0000 
@<TRIPOS>BOND
     1    1    5 1    
     2    1    2 1    
     3    1    3 1    
     4    1    4 1    
     5    5    6 1    
     6    5   10 1    
     7    5   14 1    
     8    6    9 1    
     9    6    7 1    
    10    6    8 1    
    11   10   11 1    
    12   10   12 1    
    13   10   13 1    
    14   14   15 1    
    15   15   17 am   BACKBONE|DICT|INTERRES
    16   15   16 2    
    17   17   18 1    
    18   17   19 1    
    19   19   24 1    
    20   19   25 1    
    21   19   20 1    
    22   20   23 2    
    23   20   21 am   BACKBONE|DICT|INTERRES
    24   21   58 1    
    25   21   22 1    
    26   25   26 1    
    27   25   27 1    
    28   25   28 1    
    29   28   33 ar   
    30   28   29 ar   
    31   29   30 ar   
    32   29   32 1    
    33   30   37 ar   
    34   30   31 1    
    35   33   34 1    
    36   33   35 ar   
    37   35   36 1    
    38   35   37 ar   
    39   37   38 1    
    40   38   39 1    
    41   39   40 ar   
    42   39   44 ar   
    43   40   41 ar   
    44   40   43 1    
    45   41   42 1    
    46   41   48 ar   
    47   44   46 ar   
    48   44   45 1    
    49   46   48 ar   
    50   46   47 1    
    51   48   49 1    
    52   49   51 1    
    53   49   50 2    
    54   51   53 1    
    55   51   54 1    
    56   51   52 1    
    57   54   55 1    
    58   54   56 am   BACKBONE|DICT|INTERRES
    59   56   58 1    
    60   56   57 2    
    61   58   60 1    
    62   58   59 1    
    63   60   62 1    
    64   60   61 1    
    65   60   63 1    
    66   63   66 1    
    67   63   64 1    
    68   63   65 1    
    69   66   75 ar   
    70   66   67 ar   
    71   67   69 ar   
    72   67   68 1    
    73   69   71 ar   
    74   69   70 1    
    75   71   72 1    
    76   71   73 ar   
    77   73   74 1    
    78   73   75 ar   
    79   75   76 1    
    80   77   78 1    
    81   77   79 1    
    82   77   80 1    
    83   77   81 1    
    84   81   86 2    
    85   81   82 1    
    86   82   83 1    
    87   82   84 1    
    88   82   85 1    
    89   87   89 1    
    90   87   88 1    
    91   87   90 1    
    92   87   91 1    
    93   91   92 1    
    94   91   96 2    
    95   92   93 1    
    96   92   94 1    
    97   92   95 1    
@<TRIPOS>SUBSTRUCTURE
     1 UNK         1 GROUP             0       ****    0 ROOT    
@<TRIPOS>MOLECULE
Cpd4-1000-MRC
96   97    1
SMALL
USER_CHARGES


@<TRIPOS>ATOM
      1 C1         -4.5518   -1.8176   -3.7004 C.3       1 UNK         0.0000 
      2 H2         -3.5831   -1.6938   -4.1852 H         1 UNK         0.0000 
      3 H3         -5.0765   -2.6562   -4.1677 H         1 UNK         0.0000 
      4 H4         -5.1446   -0.9112   -3.8549 H         1 UNK         0.0000 
      5 C5         -4.3929   -2.0887   -2.2069 C.3       1 UNK         0.0000 
      6 C6         -3.5235   -3.3128   -1.9233 C.3       1 UNK         0.0000 
      7 H7         -2.5403   -3.2278   -2.3889 H         1 UNK         0.0000 
      8 H8         -3.3929   -3.4339   -0.8423 H         1 UNK         0.0000 
      9 H9         -4.0265   -4.2066   -2.3052 H         1 UNK         0.0000 
     10 C10        -5.7603   -2.2444   -1.5496 C.3       1 UNK         0.0000 
     11 H11        -6.3599   -1.3430   -1.7009 H         1 UNK         0.0000 
     12 H12        -6.2882   -3.0977   -1.9839 H         1 UNK         0.0000 
     13 H13        -5.6519   -2.4135   -0.4742 H         1 UNK         0.0000 
     14 O14        -3.8488   -0.9139   -1.5383 O.3       1 UNK         0.0000 
     15 C15        -2.6101   -0.4698   -1.8257 C.2       1 UNK         0.0000 
     16 O16        -1.8542   -0.9861   -2.6433 O.2       1 UNK         0.0000 
     17 N17        -2.3106    0.6234   -1.0907 N.am      1 UNK         0.0000 
     18 H18        -2.9609    0.9357   -0.3574 H         1 UNK         0.0000 
     19 C19        -0.9382    1.0956   -1.0173 C.3       1 UNK         0.0000 
     20 C20        -0.2363    0.2919    0.0956 C.2       1 UNK         0.0000 
     21 N21         0.2594   -0.9045   -0.2980 N.am      1 UNK         0.0000 
     22 H22         0.1171   -1.2103   -1.2616 H         1 UNK         0.0000 
     23 O23        -0.2357    0.6812    1.2619 O.2       1 UNK         0.0000 
     24 H24        -0.4623    0.8773   -1.9789 H         1 UNK         0.0000 
     25 C25        -0.8928    2.6017   -0.7386 C.3       1 UNK         0.0000 
     26 H26        -1.3465    2.7939    0.2382 H         1 UNK         0.0000 
     27 H27        -1.4985    3.0995   -1.5031 H         1 UNK         0.0000 
     28 C28         0.5418    3.0669   -0.7848 C.ar      1 UNK         0.0000 
     29 C29         1.2161    3.1016   -2.0110 C.ar      1 UNK         0.0000 
     30 C30         2.5972    3.2488   -2.0637 C.ar      1 UNK         0.0000 
     31 H31         3.1345    3.1972   -3.0054 H         1 UNK         0.0000 
     32 H32         0.6590    2.9512   -2.9334 H         1 UNK         0.0000 
     33 C33         1.2668    3.3133    0.3823 C.ar      1 UNK         0.0000 
     34 H34         0.7536    3.2937    1.3389 H         1 UNK         0.0000 
     35 C35         2.6512    3.4779    0.3435 C.ar      1 UNK         0.0000 
     36 H36         3.2280    3.6038    1.2541 H         1 UNK         0.0000 
     37 C37         3.3099    3.3708   -0.8746 C.ar      1 UNK         0.0000 
     38 O38         4.7016    3.2269   -0.9055 O.3       1 UNK         0.0000 
     39 C39         4.9752    1.8690   -1.0270 C.ar      1 UNK         0.0000 
     40 C40         4.7071    1.0199    0.0457 C.ar      1 UNK         0.0000 
     41 C41         4.7241   -0.3532   -0.1488 C.ar      1 UNK         0.0000 
     42 H42         4.4445   -1.0055    0.6741 H         1 UNK         0.0000 
     43 H43         4.4063    1.4383    0.9996 H         1 UNK         0.0000 
     44 C44         5.4023    1.3630   -2.2527 C.ar      1 UNK         0.0000 
     45 H45         5.6378    2.0509   -3.0582 H         1 UNK         0.0000 
     46 C46         5.4337   -0.0162   -2.4367 C.ar      1 UNK         0.0000 
     47 H47         5.7121   -0.4428   -3.3964 H         1 UNK         0.0000 
     48 C48         5.0404   -0.8785   -1.4073 C.ar      1 UNK         0.0000 
     49 C49         4.8640   -2.3292   -1.7079 C.2       1 UNK         0.0000 
     50 O50         5.3326   -2.8338   -2.7125 O.2       1 UNK         0.0000 
     51 C51         3.9898   -3.1595   -0.7661 C.3       1 UNK         0.0000 
     52 H52         3.9115   -4.1641   -1.1924 H         1 UNK         0.0000 
     53 H53         4.4469   -3.2346    0.2263 H         1 UNK         0.0000 
     54 N54         2.6724   -2.5776   -0.6019 N.am      1 UNK         0.0000 
     55 H55         2.0424   -2.5900   -1.4068 H         1 UNK         0.0000 
     56 C56         2.1643   -2.2675    0.6116 C.2       1 UNK         0.0000 
     57 O57         2.8161   -2.3049    1.6520 O.2       1 UNK         0.0000 
     58 C58         0.6666   -1.9308    0.6505 C.3       1 UNK         0.0000 
     59 H59         0.4958   -1.5325    1.6536 H         1 UNK         0.0000 
     60 C60        -0.1843   -3.1918    0.4177 C.3       1 UNK         0.0000 
     61 H61        -0.1537   -3.4451   -0.6497 H         1 UNK         0.0000 
     62 H62        -1.2219   -2.9170    0.6428 H         1 UNK         0.0000 
     63 C63         0.2294   -4.4017    1.2726 C.3       1 UNK         0.0000 
     64 H64         0.4823   -4.0667    2.2855 H         1 UNK         0.0000 
     65 H65        -0.6410   -5.0618    1.3684 H         1 UNK         0.0000 
     66 C66         1.3776   -5.2235    0.7189 C.ar      1 UNK         0.0000 
     67 C67         2.5260   -5.4619    1.4775 C.ar      1 UNK         0.0000 
     68 H68         2.6209   -4.9977    2.4552 H         1 UNK         0.0000 
     69 C69         3.5548   -6.2666    0.9856 C.ar      1 UNK         0.0000 
     70 H70         4.4384   -6.4402    1.5926 H         1 UNK         0.0000 
     71 C71         3.4538   -6.8375   -0.2809 C.ar      1 UNK         0.0000 
     72 H72         4.2539   -7.4615   -0.6666 H         1 UNK         0.0000 
     73 C73         2.3186   -6.5920   -1.0551 C.ar      1 UNK         0.0000 
     74 H74         2.2315   -7.0263   -2.0466 H         1 UNK         0.0000 
     75 C75         1.2914   -5.7937   -0.5572 C.ar      1 UNK         0.0000 
     76 H76         0.4108   -5.6123   -1.1695 H         1 UNK         0.0000 
     77 C77        -2.5674    1.1843    3.4909 C.3       1 UNK         0.0000 
     78 H78        -2.5070    0.4837    4.3273 H         1 UNK         0.0000 
     79 H79        -2.8555    2.1720    3.8535 H         1 UNK         0.0000 
     80 H80        -1.6280    1.2287    2.9330 H         1 UNK         0.0000 
     81 S81        -3.8645    0.6443    2.3530 S.3       1 UNK         0.0000 
     82 C82        -3.1063   -0.9338    1.8787 C.3       1 UNK         0.0000 
     83 H83        -3.6454   -1.2870    0.9957 H         1 UNK         0.0000 
     84 H84        -3.2175   -1.6421    2.7036 H         1 UNK         0.0000 
     85 H85        -2.0523   -0.7620    1.6457 H         1 UNK         0.0000 
     86 O86        -3.7407    1.5577    1.1368 O.2       1 UNK         0.0000 
     87 C87        -0.3103   -2.1367   -5.1012 C.3       1 UNK         0.0000 
     88 H88        -0.2418   -1.5607   -6.0265 H         1 UNK         0.0000 
     89 H89        -1.2961   -2.0262   -4.6494 H         1 UNK         0.0000 
     90 H90        -0.0684   -3.1890   -5.2655 H         1 UNK         0.0000 
     91 S91         0.8479   -1.4728   -3.8915 S.3       1 UNK         0.0000 
     92 C92         2.3867   -1.8910   -4.7410 C.3       1 UNK         0.0000 
     93 H93         2.4433   -1.3468   -5.6867 H         1 UNK         0.0000 
     94 H94         2.4152   -2.9711   -4.9002 H         1 UNK         0.0000 
     95 H95         3.2107   -1.5920   -4.0896 H         1 UNK         0.0000 
     96 O96         0.7831   -2.4598   -2.7194 O.2       1 UNK         0.0000 
@<TRIPOS>BOND
     1    1    4 1    
     2    1    2 1    
     3    1    3 1    
     4    1    5 1    
     5    5    6 1    
     6    5   10 1    
     7    5   14 1    
     8    6    7 1    
     9    6    9 1    
    10    6    8 1    
    11   10   11 1    
    12   10   12 1    
    13   10   13 1    
    14   14   15 1    
    15   15   16 2    
    16   15   17 am   BACKBONE|DICT|INTERRES
    17   17   18 1    
    18   17   19 1    
    19   19   24 1    
    20   19   20 1    
    21   19   25 1    
    22   20   21 am   BACKBONE|DICT|INTERRES
    23   20   23 2    
    24   21   22 1    
    25   21   58 1    
    26   25   27 1    
    27   25   26 1    
    28   25   28 1    
    29   28   29 ar   
    30   28   33 ar   
    31   29   32 1    
    32   29   30 ar   
    33   30   31 1    
    34   30   37 ar   
    35   33   34 1    
    36   33   35 ar   
    37   35   37 ar   
    38   35   36 1    
    39   37   38 1    
    40   38   39 1    
    41   39   44 ar   
    42   39   40 ar   
    43   40   41 ar   
    44   40   43 1    
    45   41   48 ar   
    46   41   42 1    
    47   44   46 ar   
    48   44   45 1    
    49   46   47 1    
    50   46   48 ar   
    51   48   49 1    
    52   49   50 2    
    53   49   51 1    
    54   51   54 1    
    55   51   52 1    
    56   51   53 1    
    57   54   55 1    
    58   54   56 am   BACKBONE|DICT|INTERRES
    59   56   58 1    
    60   56   57 2    
    61   58   59 1    
    62   58   60 1    
    63   60   61 1    
    64   60   62 1    
    65   60   63 1    
    66   63   66 1    
    67   63   64 1    
    68   63   65 1    
    69   66   75 ar   
    70   66   67 ar   
    71   67   69 ar   
    72   67   68 1    
    73   69   71 ar   
    74   69   70 1    
    75   71   72 1    
    76   71   73 ar   
    77   73   74 1    
    78   73   75 ar   
    79   75   76 1    
    80   77   80 1    
    81   77   81 1    
    82   77   78 1    
    83   77   79 1    
    84   81   82 1    
    85   81   86 2    
    86   82   85 1    
    87   82   83 1    
    88   82   84 1    
    89   87   90 1    
    90   87   88 1    
    91   87   89 1    
    92   87   91 1    
    93   91   92 1    
    94   91   96 2    
    95   92   94 1    
    96   92   93 1    
    97   92   95 1    
@<TRIPOS>SUBSTRUCTURE
     1 UNK         1 GROUP             0       ****    0 ROOT    
@<TRIPOS>MOLECULE
Cpd4-1500-MEC
96   97    1
SMALL
USER_CHARGES


@<TRIPOS>ATOM
      1 C1         -4.5188   -1.7311   -3.8311 C.3       1 UNK         0.0000 
      2 H2         -3.4802   -2.0195   -3.9970 H         1 UNK         0.0000 
      3 H3         -5.1728   -2.4830   -4.2824 H         1 UNK         0.0000 
      4 H4         -4.7087   -0.7726   -4.3248 H         1 UNK         0.0000 
      5 C5         -4.8400   -1.6275   -2.3423 C.3       1 UNK         0.0000 
      6 C6         -4.4575   -2.8887   -1.5758 C.3       1 UNK         0.0000 
      7 H7         -5.0664   -3.7265   -1.9289 H         1 UNK         0.0000 
      8 H8         -3.4061   -3.1396   -1.7238 H         1 UNK         0.0000 
      9 H9         -4.6396   -2.7570   -0.5038 H         1 UNK         0.0000 
     10 C10        -6.3153   -1.3032   -2.1386 C.3       1 UNK         0.0000 
     11 H11        -6.5829   -0.3835   -2.6682 H         1 UNK         0.0000 
     12 H12        -6.9287   -2.1195   -2.5290 H         1 UNK         0.0000 
     13 H13        -6.5357   -1.1734   -1.0755 H         1 UNK         0.0000 
     14 O14        -4.1705   -0.4672   -1.7518 O.3       1 UNK         0.0000 
     15 C15        -2.8272   -0.3673   -1.7481 C.2       1 UNK         0.0000 
     16 O16        -2.0575   -1.1679   -2.2704 O.2       1 UNK         0.0000 
     17 N17        -2.4368    0.7460   -1.0943 N.am      1 UNK         0.0000 
     18 H18        -3.1514    1.3272   -0.6389 H         1 UNK         0.0000 
     19 C19        -1.0346    1.1099   -1.0095 C.3       1 UNK         0.0000 
     20 C20        -0.3859    0.3323    0.1514 C.2       1 UNK         0.0000 
     21 N21         0.3427   -0.7469   -0.2187 N.am      1 UNK         0.0000 
     22 H22         0.3247   -1.0111   -1.2087 H         1 UNK         0.0000 
     23 O23        -0.5768    0.6718    1.3184 O.2       1 UNK         0.0000 
     24 H24        -0.5498    0.8236   -1.9500 H         1 UNK         0.0000 
     25 C25        -0.9126    2.6247   -0.7949 C.3       1 UNK         0.0000 
     26 H26        -1.3761    2.8836    0.1619 H         1 UNK         0.0000 
     27 H27        -1.4719    3.1213   -1.5948 H         1 UNK         0.0000 
     28 C28         0.5390    3.0316   -0.8160 C.ar      1 UNK         0.0000 
     29 C29         1.2316    3.0601   -2.0323 C.ar      1 UNK         0.0000 
     30 C30         2.6143    3.2024   -2.0625 C.ar      1 UNK         0.0000 
     31 H31         3.1614    3.1598   -2.9989 H         1 UNK         0.0000 
     32 H32         0.6885    2.9211   -2.9641 H         1 UNK         0.0000 
     33 C33         1.2481    3.2599    0.3658 C.ar      1 UNK         0.0000 
     34 H34         0.7186    3.2609    1.3141 H         1 UNK         0.0000 
     35 C35         2.6358    3.4105    0.3507 C.ar      1 UNK         0.0000 
     36 H36         3.1971    3.5286    1.2721 H         1 UNK         0.0000 
     37 C37         3.3086    3.3192   -0.8610 C.ar      1 UNK         0.0000 
     38 O38         4.7050    3.2006   -0.8738 O.3       1 UNK         0.0000 
     39 C39         5.0030    1.8485   -1.0202 C.ar      1 UNK         0.0000 
     40 C40         4.7877    0.9891    0.0573 C.ar      1 UNK         0.0000 
     41 C41         4.8057   -0.3812   -0.1566 C.ar      1 UNK         0.0000 
     42 H42         4.5731   -1.0519    0.6661 H         1 UNK         0.0000 
     43 H43         4.5309    1.3978    1.0287 H         1 UNK         0.0000 
     44 C44         5.3868    1.3638   -2.2675 C.ar      1 UNK         0.0000 
     45 H45         5.5761    2.0588   -3.0788 H         1 UNK         0.0000 
     46 C46         5.4251   -0.0134   -2.4689 C.ar      1 UNK         0.0000 
     47 H47         5.6563   -0.4190   -3.4490 H         1 UNK         0.0000 
     48 C48         5.0769   -0.8871   -1.4339 C.ar      1 UNK         0.0000 
     49 C49         4.9000   -2.3322   -1.7400 C.2       1 UNK         0.0000 
     50 O50         5.4811   -2.8723   -2.6654 O.2       1 UNK         0.0000 
     51 C51         3.9215   -3.1409   -0.8862 C.3       1 UNK         0.0000 
     52 H52         3.7615   -4.0905   -1.4041 H         1 UNK         0.0000 
     53 H53         4.3830   -3.3503    0.0845 H         1 UNK         0.0000 
     54 N54         2.6569   -2.4741   -0.6412 N.am      1 UNK         0.0000 
     55 H55         2.0634   -2.2660   -1.4506 H         1 UNK         0.0000 
     56 C56         2.2134   -2.2221    0.6089 C.2       1 UNK         0.0000 
     57 O57         2.8833   -2.4541    1.6179 O.2       1 UNK         0.0000 
     58 C58         0.7729   -1.7273    0.7666 C.3       1 UNK         0.0000 
     59 H59         0.7327   -1.2322    1.7385 H         1 UNK         0.0000 
     60 C60        -0.1462   -2.9644    0.7898 C.3       1 UNK         0.0000 
     61 H61         0.1999   -3.6288    1.5900 H         1 UNK         0.0000 
     62 H62        -0.0260   -3.5088   -0.1549 H         1 UNK         0.0000 
     63 C63        -1.6151   -2.5954    1.0106 C.3       1 UNK         0.0000 
     64 H64        -1.6948   -1.9180    1.8682 H         1 UNK         0.0000 
     65 H65        -1.9711   -2.0354    0.1346 H         1 UNK         0.0000 
     66 C66        -2.5242   -3.7834    1.2296 C.ar      1 UNK         0.0000 
     67 C67        -2.4500   -4.9250    0.4215 C.ar      1 UNK         0.0000 
     68 H68        -1.7010   -4.9881   -0.3643 H         1 UNK         0.0000 
     69 C69        -3.3349   -5.9876    0.5997 C.ar      1 UNK         0.0000 
     70 H70        -3.2618   -6.8615   -0.0409 H         1 UNK         0.0000 
     71 C71        -4.3127   -5.9291    1.5938 C.ar      1 UNK         0.0000 
     72 H72        -5.0024   -6.7558    1.7322 H         1 UNK         0.0000 
     73 C73        -4.3925   -4.8014    2.4100 C.ar      1 UNK         0.0000 
     74 H74        -5.1455   -4.7452    3.1903 H         1 UNK         0.0000 
     75 C75        -3.5030   -3.7418    2.2280 C.ar      1 UNK         0.0000 
     76 H76        -3.5729   -2.8644    2.8664 H         1 UNK         0.0000 
     77 C77        -5.4282    2.4765   -2.5266 C.3       1 UNK         0.0000 
     78 H78        -4.7950    1.6495   -2.8513 H         1 UNK         0.0000 
     79 H79        -4.8907    3.4254   -2.5886 H         1 UNK         0.0000 
     80 H80        -6.3457    2.5031   -3.1184 H         1 UNK         0.0000 
     81 S81        -5.8455    2.1656   -0.7987 S.3       1 UNK         0.0000 
     82 C82        -6.7639    3.6875   -0.4914 C.3       1 UNK         0.0000 
     83 H83        -7.0301    3.6947    0.5659 H         1 UNK         0.0000 
     84 H84        -7.6677    3.6889   -1.1038 H         1 UNK         0.0000 
     85 H85        -6.1231    4.5385   -0.7309 H         1 UNK         0.0000 
     86 O86        -4.5266    2.3438   -0.0267 O.2       1 UNK         0.0000 
     87 C87        -0.5573   -3.7491   -3.0303 C.3       1 UNK         0.0000 
     88 H88        -1.2503   -3.3185   -2.3058 H         1 UNK         0.0000 
     89 H89         0.2394   -4.3163   -2.5420 H         1 UNK         0.0000 
     90 H90        -1.0972   -4.3689   -3.7493 H         1 UNK         0.0000 
     91 S91         0.1756   -2.3483   -3.8955 S.3       1 UNK         0.0000 
     92 C92         1.3787   -3.2611   -4.8811 C.3       1 UNK         0.0000 
     93 H93         2.0169   -3.8393   -4.2094 H         1 UNK         0.0000 
     94 H94         1.9679   -2.5267   -5.4310 H         1 UNK         0.0000 
     95 H95         0.8467   -3.9118   -5.5779 H         1 UNK         0.0000 
     96 O96         1.0346   -1.6266   -2.8360 O.2       1 UNK         0.0000 
@<TRIPOS>BOND
     1    1    2 1    
     2    1    4 1    
     3    1    3 1    
     4    1    5 1    
     5    5    6 1    
     6    5   10 1    
     7    5   14 1    
     8    6    8 1    
     9    6    7 1    
    10    6    9 1    
    11   10   11 1    
    12   10   12 1    
    13   10   13 1    
    14   14   15 1    
    15   15   16 2    
    16   15   17 am   BACKBONE|DICT|INTERRES
    17   17   18 1    
    18   17   19 1    
    19   19   24 1    
    20   19   20 1    
    21   19   25 1    
    22   20   21 am   BACKBONE|DICT|INTERRES
    23   20   23 2    
    24   21   22 1    
    25   21   58 1    
    26   25   27 1    
    27   25   26 1    
    28   25   28 1    
    29   28   29 ar   
    30   28   33 ar   
    31   29   32 1    
    32   29   30 ar   
    33   30   31 1    
    34   30   37 ar   
    35   33   34 1    
    36   33   35 ar   
    37   35   37 ar   
    38   35   36 1    
    39   37   38 1    
    40   38   39 1    
    41   39   44 ar   
    42   39   40 ar   
    43   40   41 ar   
    44   40   43 1    
    45   41   48 ar   
    46   41   42 1    
    47   44   46 ar   
    48   44   45 1    
    49   46   47 1    
    50   46   48 ar   
    51   48   49 1    
    52   49   50 2    
    53   49   51 1    
    54   51   52 1    
    55   51   53 1    
    56   51   54 1    
    57   54   55 1    
    58   54   56 am   BACKBONE|DICT|INTERRES
    59   56   57 2    
    60   56   58 1    
    61   58   59 1    
    62   58   60 1    
    63   60   62 1    
    64   60   61 1    
    65   60   63 1    
    66   63   65 1    
    67   63   64 1    
    68   63   66 1    
    69   66   67 ar   
    70   66   75 ar   
    71   67   68 1    
    72   67   69 ar   
    73   69   70 1    
    74   69   71 ar   
    75   71   72 1    
    76   71   73 ar   
    77   73   75 ar   
    78   73   74 1    
    79   75   76 1    
    80   77   78 1    
    81   77   80 1    
    82   77   79 1    
    83   77   81 1    
    84   81   82 1    
    85   81   86 2    
    86   82   85 1    
    87   82   84 1    
    88   82   83 1    
    89   87   91 1    
    90   87   90 1    
    91   87   88 1    
    92   87   89 1    
    93   91   92 1    
    94   91   96 2    
    95   92   94 1    
    96   92   95 1    
    97   92   93 1    
@<TRIPOS>SUBSTRUCTURE
     1 UNK         1 GROUP             0       ****    0 ROOT    
@<TRIPOS>MOLECULE
Cpd4-2000
96   97    1
SMALL
USER_CHARGES


@<TRIPOS>ATOM
      1 C1         -5.1179   -2.2665   -2.0423 C.3       1 UNK         0.0000 
      2 H2         -5.7896   -3.1302   -2.0374 H         1 UNK         0.0000 
      3 H3         -5.4293   -1.5898   -2.8443 H         1 UNK         0.0000 
      4 H4         -4.1030   -2.6179   -2.2340 H         1 UNK         0.0000 
      5 C5         -5.2066   -1.5568   -0.6948 C.3       1 UNK         0.0000 
      6 C6         -4.7447   -2.4392    0.4622 C.3       1 UNK         0.0000 
      7 H7         -3.7436   -2.8365    0.2896 H         1 UNK         0.0000 
      8 H8         -4.7566   -1.8687    1.3973 H         1 UNK         0.0000 
      9 H9         -5.4391   -3.2788    0.5663 H         1 UNK         0.0000 
     10 C10        -6.6238   -1.0543   -0.4459 C.3       1 UNK         0.0000 
     11 H11        -6.9304   -0.3623   -1.2355 H         1 UNK         0.0000 
     12 H12        -7.3163   -1.9001   -0.4301 H         1 UNK         0.0000 
     13 H13        -6.6849   -0.5374    0.5171 H         1 UNK         0.0000 
     14 O14        -4.4270   -0.3180   -0.7354 O.3       1 UNK         0.0000 
     15 C15        -3.0937   -0.3482   -0.9328 C.2       1 UNK         0.0000 
     16 O16        -2.4176   -1.3626   -1.0500 O.2       1 UNK         0.0000 
     17 N17        -2.5922    0.9063   -0.9792 N.am      1 UNK         0.0000 
     18 H18        -3.2205    1.6823   -0.7420 H         1 UNK         0.0000 
     19 C19        -1.1593    1.1303   -0.9742 C.3       1 UNK         0.0000 
     20 C20        -0.5114    0.3480    0.1832 C.2       1 UNK         0.0000 
     21 N21         0.4564   -0.5354   -0.1581 N.am      1 UNK         0.0000 
     22 H22         0.5461   -0.7543   -1.1521 H         1 UNK         0.0000 
     23 O23        -0.8769    0.5414    1.3415 O.2       1 UNK         0.0000 
     24 H24        -0.7196    0.7935   -1.9228 H         1 UNK         0.0000 
     25 C25        -0.9299    2.6417   -0.7981 C.3       1 UNK         0.0000 
     26 H26        -1.3806    2.9437    0.1529 H         1 UNK         0.0000 
     27 H27        -1.4661    3.1559   -1.6032 H         1 UNK         0.0000 
     28 C28         0.5359    2.9850   -0.8264 C.ar      1 UNK         0.0000 
     29 C29         1.2357    2.9601   -2.0383 C.ar      1 UNK         0.0000 
     30 C30         2.6186    3.0981   -2.0647 C.ar      1 UNK         0.0000 
     31 H31         3.1699    3.0268   -2.9969 H         1 UNK         0.0000 
     32 H32         0.6963    2.7947   -2.9679 H         1 UNK         0.0000 
     33 C33         1.2411    3.2392    0.3524 C.ar      1 UNK         0.0000 
     34 H34         0.7063    3.2830    1.2974 H         1 UNK         0.0000 
     35 C35         2.6297    3.3823    0.3410 C.ar      1 UNK         0.0000 
     36 H36         3.1871    3.5297    1.2605 H         1 UNK         0.0000 
     37 C37         3.3073    3.2619   -0.8651 C.ar      1 UNK         0.0000 
     38 O38         4.7058    3.1764   -0.8700 O.3       1 UNK         0.0000 
     39 C39         5.0381    1.8332   -1.0177 C.ar      1 UNK         0.0000 
     40 C40         4.8396    0.9694    0.0601 C.ar      1 UNK         0.0000 
     41 C41         4.8697   -0.3990   -0.1596 C.ar      1 UNK         0.0000 
     42 H42         4.6456   -1.0770    0.6596 H         1 UNK         0.0000 
     43 H43         4.5800    1.3737    1.0326 H         1 UNK         0.0000 
     44 C44         5.4313    1.3588   -2.2655 C.ar      1 UNK         0.0000 
     45 H45         5.6112    2.0591   -3.0743 H         1 UNK         0.0000 
     46 C46         5.4804   -0.0175   -2.4726 C.ar      1 UNK         0.0000 
     47 H47         5.7086   -0.4171   -3.4560 H         1 UNK         0.0000 
     48 C48         5.1362   -0.8964   -1.4417 C.ar      1 UNK         0.0000 
     49 C49         4.9221   -2.3319   -1.7647 C.2       1 UNK         0.0000 
     50 O50         5.5155   -2.8918   -2.6698 O.2       1 UNK         0.0000 
     51 C51         3.8736   -3.0988   -0.9576 C.3       1 UNK         0.0000 
     52 H52         3.6332   -4.0033   -1.5237 H         1 UNK         0.0000 
     53 H53         4.3148   -3.4012   -0.0020 H         1 UNK         0.0000 
     54 N54         2.6741   -2.3360   -0.6669 N.am      1 UNK         0.0000 
     55 H55         2.1385   -1.9735   -1.4589 H         1 UNK         0.0000 
     56 C56         2.2422   -2.1615    0.6001 C.2       1 UNK         0.0000 
     57 O57         2.8677   -2.5814    1.5772 O.2       1 UNK         0.0000 
     58 C58         0.8859   -1.5033    0.8438 C.3       1 UNK         0.0000 
     59 H59         0.9945   -0.9591    1.7836 H         1 UNK         0.0000 
     60 C60        -0.1729   -2.6102    1.0489 C.3       1 UNK         0.0000 
     61 H61        -1.1240   -2.1137    1.2694 H         1 UNK         0.0000 
     62 H62         0.1161   -3.1933    1.9290 H         1 UNK         0.0000 
     63 C63        -0.3398   -3.5105   -0.1780 C.3       1 UNK         0.0000 
     64 H64        -0.4364   -2.8716   -1.0642 H         1 UNK         0.0000 
     65 H65         0.5630   -4.1223   -0.3145 H         1 UNK         0.0000 
     66 C66        -1.5499   -4.4156   -0.1200 C.ar      1 UNK         0.0000 
     67 C67        -2.3226   -4.6278   -1.2666 C.ar      1 UNK         0.0000 
     68 H68        -2.0595   -4.1117   -2.1874 H         1 UNK         0.0000 
     69 C69        -3.4401   -5.4603   -1.2414 C.ar      1 UNK         0.0000 
     70 H70        -4.0299   -5.5988   -2.1429 H         1 UNK         0.0000 
     71 C71        -3.8101   -6.0964   -0.0567 C.ar      1 UNK         0.0000 
     72 H72        -4.6852   -6.7384   -0.0296 H         1 UNK         0.0000 
     73 C73        -3.0491   -5.8950    1.0947 C.ar      1 UNK         0.0000 
     74 H74        -3.3282   -6.3837    2.0235 H         1 UNK         0.0000 
     75 C75        -1.9278   -5.0652    1.0610 C.ar      1 UNK         0.0000 
     76 H76        -1.3484   -4.9204    1.9686 H         1 UNK         0.0000 
     77 C77        -6.0767    3.8695    1.6362 C.3       1 UNK         0.0000 
     78 H78        -6.5269    4.5817    0.9443 H         1 UNK         0.0000 
     79 H79        -5.2011    4.3068    2.1201 H         1 UNK         0.0000 
     80 H80        -6.8150    3.5463    2.3726 H         1 UNK         0.0000 
     81 S81        -5.5502    2.4433    0.6654 S.3       1 UNK         0.0000 
     82 C82        -4.7561    1.5194    1.9965 C.3       1 UNK         0.0000 
     83 H83        -3.9876    2.1503    2.4489 H         1 UNK         0.0000 
     84 H84        -4.3091    0.6340    1.5420 H         1 UNK         0.0000 
     85 H85        -5.5107    1.2268    2.7299 H         1 UNK         0.0000 
     86 O86        -4.3969    2.9691   -0.2065 O.2       1 UNK         0.0000 
     87 C87        -1.1071   -1.5972   -4.0150 C.3       1 UNK         0.0000 
     88 H88        -1.4109   -1.9127   -3.0122 H         1 UNK         0.0000 
     89 H89        -1.5770   -2.2010   -4.7942 H         1 UNK         0.0000 
     90 H90        -1.3549   -0.5445   -4.1619 H         1 UNK         0.0000 
     91 S91         0.6828   -1.7453   -4.1619 S.3       1 UNK         0.0000 
     92 C92         0.8310   -3.5288   -3.9403 C.3       1 UNK         0.0000 
     93 H93         1.8961   -3.7644   -3.9521 H         1 UNK         0.0000 
     94 H94         0.3301   -4.0317   -4.7695 H         1 UNK         0.0000 
     95 H95         0.3861   -3.8099   -2.9831 H         1 UNK         0.0000 
     96 O96         1.2396   -1.1327   -2.8588 O.2       1 UNK         0.0000 
@<TRIPOS>BOND
     1    1    3 1    
     2    1    2 1    
     3    1    4 1    
     4    1    5 1    
     5    5   10 1    
     6    5   14 1    
     7    5    6 1    
     8    6    7 1    
     9    6    8 1    
    10    6    9 1    
    11   10   11 1    
    12   10   12 1    
    13   10   13 1    
    14   14   15 1    
    15   15   17 am   BACKBONE|DICT|INTERRES
    16   15   16 2    
    17   17   18 1    
    18   17   19 1    
    19   19   24 1    
    20   19   20 1    
    21   19   25 1    
    22   20   21 am   BACKBONE|DICT|INTERRES
    23   20   23 2    
    24   21   22 1    
    25   21   58 1    
    26   25   27 1    
    27   25   26 1    
    28   25   28 1    
    29   28   29 ar   
    30   28   33 ar   
    31   29   32 1    
    32   29   30 ar   
    33   30   31 1    
    34   30   37 ar   
    35   33   34 1    
    36   33   35 ar   
    37   35   37 ar   
    38   35   36 1    
    39   37   38 1    
    40   38   39 1    
    41   39   44 ar   
    42   39   40 ar   
    43   40   41 ar   
    44   40   43 1    
    45   41   48 ar   
    46   41   42 1    
    47   44   46 ar   
    48   44   45 1    
    49   46   47 1    
    50   46   48 ar   
    51   48   49 1    
    52   49   50 2    
    53   49   51 1    
    54   51   54 1    
    55   51   52 1    
    56   51   53 1    
    57   54   55 1    
    58   54   56 am   BACKBONE|DICT|INTERRES
    59   56   58 1    
    60   56   57 2    
    61   58   59 1    
    62   58   60 1    
    63   60   61 1    
    64   60   63 1    
    65   60   62 1    
    66   63   66 1    
    67   63   64 1    
    68   63   65 1    
    69   66   67 ar   
    70   66   75 ar   
    71   67   69 ar   
    72   67   68 1    
    73   69   70 1    
    74   69   71 ar   
    75   71   72 1    
    76   71   73 ar   
    77   73   74 1    
    78   73   75 ar   
    79   75   76 1    
    80   77   81 1    
    81   77   78 1    
    82   77   79 1    
    83   77   80 1    
    84   81   86 2    
    85   81   82 1    
    86   82   84 1    
    87   82   83 1    
    88   82   85 1    
    89   87   90 1    
    90   87   89 1    
    91   87   88 1    
    92   87   91 1    
    93   91   92 1    
    94   91   96 2    
    95   92   94 1    
    96   92   93 1    
    97   92   95 1    
@<TRIPOS>SUBSTRUCTURE
     1 UNK         1 GROUP             0       ****    0 ROOT    
@<TRIPOS>MOLECULE
Cpd4-2500
96   97    1
SMALL
USER_CHARGES


@<TRIPOS>ATOM
      1 C1         -3.9457   -1.7281   -4.2145 C.3       1 UNK         0.0000 
      2 H2         -2.8895   -1.9038   -4.4143 H         1 UNK         0.0000 
      3 H3         -4.5425   -2.4281   -4.8071 H         1 UNK         0.0000 
      4 H4         -4.2054   -0.7115   -4.5257 H         1 UNK         0.0000 
      5 C5         -4.2793   -1.9216   -2.7364 C.3       1 UNK         0.0000 
      6 C6         -3.7653   -3.2500   -2.1901 C.3       1 UNK         0.0000 
      7 H7         -4.2140   -4.0730   -2.7546 H         1 UNK         0.0000 
      8 H8         -2.6791   -3.3159   -2.2766 H         1 UNK         0.0000 
      9 H9         -4.0503   -3.3601   -1.1389 H         1 UNK         0.0000 
     10 C10        -5.7866   -1.8078   -2.5289 C.3       1 UNK         0.0000 
     11 H11        -6.2932   -2.6244   -3.0496 H         1 UNK         0.0000 
     12 H12        -6.0380   -1.8695   -1.4658 H         1 UNK         0.0000 
     13 H13        -6.1606   -0.8597   -2.9271 H         1 UNK         0.0000 
     14 O14        -3.7505   -0.8204   -1.9330 O.3       1 UNK         0.0000 
     15 C15        -2.4224   -0.5499   -1.9355 C.2       1 UNK         0.0000 
     16 O16        -1.5928   -1.1763   -2.5892 O.2       1 UNK         0.0000 
     17 N17        -2.1400    0.4931   -1.1332 N.am      1 UNK         0.0000 
     18 H18        -2.8609    0.8655   -0.5005 H         1 UNK         0.0000 
     19 C19        -0.7782    0.9955   -0.9967 C.3       1 UNK         0.0000 
     20 C20        -0.0586    0.2338    0.1362 C.2       1 UNK         0.0000 
     21 N21         0.1909   -1.0687   -0.1678 N.am      1 UNK         0.0000 
     22 H22        -0.0444   -1.3691   -1.1112 H         1 UNK         0.0000 
     23 O23         0.1805    0.7418    1.2213 O.2       1 UNK         0.0000 
     24 H24        -0.2450    0.7707   -1.9267 H         1 UNK         0.0000 
     25 C25        -0.8068    2.5092   -0.7463 C.3       1 UNK         0.0000 
     26 H26        -1.2496    2.7015    0.2357 H         1 UNK         0.0000 
     27 H27        -1.4552    2.9574   -1.5075 H         1 UNK         0.0000 
     28 C28         0.5927    3.0651   -0.8338 C.ar      1 UNK         0.0000 
     29 C29         1.2430    3.1006   -2.0713 C.ar      1 UNK         0.0000 
     30 C30         2.6143    3.3083   -2.1549 C.ar      1 UNK         0.0000 
     31 H31         3.1413    3.2354   -3.1015 H         1 UNK         0.0000 
     32 H32         0.6769    2.8970   -2.9786 H         1 UNK         0.0000 
     33 C33         1.3171    3.4045    0.3097 C.ar      1 UNK         0.0000 
     34 H34         0.8210    3.3873    1.2748 H         1 UNK         0.0000 
     35 C35         2.6895    3.6374    0.2408 C.ar      1 UNK         0.0000 
     36 H36         3.2735    3.8233    1.1365 H         1 UNK         0.0000 
     37 C37         3.3352    3.5005   -0.9811 C.ar      1 UNK         0.0000 
     38 O38         4.7297    3.3665   -1.0205 O.3       1 UNK         0.0000 
     39 C39         4.9933    2.0037   -1.0882 C.ar      1 UNK         0.0000 
     40 C40         4.7008    1.1957    0.0109 C.ar      1 UNK         0.0000 
     41 C41         4.6932   -0.1812   -0.1403 C.ar      1 UNK         0.0000 
     42 H42         4.3880   -0.8050    0.6940 H         1 UNK         0.0000 
     43 H43         4.3919    1.6510    0.9445 H         1 UNK         0.0000 
     44 C44         5.4275    1.4503   -2.2904 C.ar      1 UNK         0.0000 
     45 H45         5.6774    2.1064   -3.1177 H         1 UNK         0.0000 
     46 C46         5.4413    0.0660   -2.4263 C.ar      1 UNK         0.0000 
     47 H47         5.7266   -0.3954   -3.3677 H         1 UNK         0.0000 
     48 C48         5.0158   -0.7539   -1.3758 C.ar      1 UNK         0.0000 
     49 C49         4.8008   -2.2018   -1.6373 C.2       1 UNK         0.0000 
     50 O50         5.2711   -2.7513   -2.6187 O.2       1 UNK         0.0000 
     51 C51         3.9212   -2.9916   -0.6762 C.3       1 UNK         0.0000 
     52 H52         3.8078   -3.9959   -1.0957 H         1 UNK         0.0000 
     53 H53         4.4261   -3.0973    0.2929 H         1 UNK         0.0000 
     54 N54         2.6339   -2.3576   -0.4536 N.am      1 UNK         0.0000 
     55 H55         2.2880   -1.6555   -1.1111 H         1 UNK         0.0000 
     56 C56         1.9502   -2.6441    0.6797 C.2       1 UNK         0.0000 
     57 O57         2.3898   -3.3973    1.5431 O.2       1 UNK         0.0000 
     58 C58         0.5414   -2.0587    0.8262 C.3       1 UNK         0.0000 
     59 H59         0.5026   -1.5644    1.8027 H         1 UNK         0.0000 
     60 C60        -0.4473   -3.2384    0.7932 C.3       1 UNK         0.0000 
     61 H61        -0.1317   -3.9574    1.5555 H         1 UNK         0.0000 
     62 H62        -0.3624   -3.7381   -0.1822 H         1 UNK         0.0000 
     63 C63        -1.9085   -2.8262    1.0187 C.3       1 UNK         0.0000 
     64 H64        -2.2086   -2.1087    0.2443 H         1 UNK         0.0000 
     65 H65        -2.5352   -3.7168    0.8888 H         1 UNK         0.0000 
     66 C66        -2.1613   -2.2260    2.3811 C.ar      1 UNK         0.0000 
     67 C67        -2.2608   -0.8427    2.5476 C.ar      1 UNK         0.0000 
     68 H68        -2.1871   -0.1818    1.6885 H         1 UNK         0.0000 
     69 C69        -2.4876   -0.2888    3.8071 C.ar      1 UNK         0.0000 
     70 H70        -2.5629    0.7902    3.9044 H         1 UNK         0.0000 
     71 C71        -2.6184   -1.1159    4.9211 C.ar      1 UNK         0.0000 
     72 H72        -2.7986   -0.6884    5.9027 H         1 UNK         0.0000 
     73 C73        -2.5183   -2.4997    4.7677 C.ar      1 UNK         0.0000 
     74 H74        -2.6227   -3.1520    5.6295 H         1 UNK         0.0000 
     75 C75        -2.2893   -3.0473    3.5074 C.ar      1 UNK         0.0000 
     76 H76        -2.2167   -4.1269    3.3923 H         1 UNK         0.0000 
     77 C77         0.6089    0.1046   -4.6786 C.3       1 UNK         0.0000 
     78 H78         0.1230    1.0289   -4.3611 H         1 UNK         0.0000 
     79 H79         0.0107   -0.7481   -4.3467 H         1 UNK         0.0000 
     80 H80         0.7526    0.1164   -5.7616 H         1 UNK         0.0000 
     81 S81         2.2195    0.0211   -3.8544 S.3       1 UNK         0.0000 
     82 C82         2.7725   -1.5232   -4.6175 C.3       1 UNK         0.0000 
     83 H83         3.7357   -1.7880   -4.1766 H         1 UNK         0.0000 
     84 H84         2.8816   -1.3777   -5.6948 H         1 UNK         0.0000 
     85 H85         2.0337   -2.2977   -4.3962 H         1 UNK         0.0000 
     86 O86         1.8970   -0.3301   -2.4059 O.2       1 UNK         0.0000 
     87 C87        -5.3121   -0.6700    1.1723 C.3       1 UNK         0.0000 
     88 H88        -6.3465   -1.0155    1.0972 H         1 UNK         0.0000 
     89 H89        -4.8813   -0.9677    2.1292 H         1 UNK         0.0000 
     90 H90        -4.7019   -1.0496    0.3464 H         1 UNK         0.0000 
     91 S91        -5.2896    1.1394    1.0990 S.3       1 UNK         0.0000 
     92 C92        -6.0775    1.3138   -0.5209 C.3       1 UNK         0.0000 
     93 H93        -5.4660    0.7788   -1.2520 H         1 UNK         0.0000 
     94 H94        -6.1003    2.3804   -0.7483 H         1 UNK         0.0000 
     95 H95        -7.0950    0.9172   -0.4847 H         1 UNK         0.0000 
     96 O96        -3.8348    1.5382    0.8650 O.2       1 UNK         0.0000 
@<TRIPOS>BOND
     1    1    5 1    
     2    1    4 1    
     3    1    2 1    
     4    1    3 1    
     5    5   10 1    
     6    5   14 1    
     7    5    6 1    
     8    6    9 1    
     9    6    7 1    
    10    6    8 1    
    11   10   12 1    
    12   10   13 1    
    13   10   11 1    
    14   14   15 1    
    15   15   17 am   BACKBONE|DICT|INTERRES
    16   15   16 2    
    17   17   19 1    
    18   17   18 1    
    19   19   24 1    
    20   19   25 1    
    21   19   20 1    
    22   20   23 2    
    23   20   21 am   BACKBONE|DICT|INTERRES
    24   21   22 1    
    25   21   58 1    
    26   25   27 1    
    27   25   28 1    
    28   25   26 1    
    29   28   33 ar   
    30   28   29 ar   
    31   29   30 ar   
    32   29   32 1    
    33   30   37 ar   
    34   30   31 1    
    35   33   35 ar   
    36   33   34 1    
    37   35   36 1    
    38   35   37 ar   
    39   37   38 1    
    40   38   39 1    
    41   39   40 ar   
    42   39   44 ar   
    43   40   43 1    
    44   40   41 ar   
    45   41   42 1    
    46   41   48 ar   
    47   44   45 1    
    48   44   46 ar   
    49   46   47 1    
    50   46   48 ar   
    51   48   49 1    
    52   49   50 2    
    53   49   51 1    
    54   51   53 1    
    55   51   54 1    
    56   51   52 1    
    57   54   56 am   BACKBONE|DICT|INTERRES
    58   54   55 1    
    59   56   58 1    
    60   56   57 2    
    61   58   59 1    
    62   58   60 1    
    63   60   63 1    
    64   60   61 1    
    65   60   62 1    
    66   63   64 1    
    67   63   66 1    
    68   63   65 1    
    69   66   67 ar   
    70   66   75 ar   
    71   67   68 1    
    72   67   69 ar   
    73   69   70 1    
    74   69   71 ar   
    75   71   72 1    
    76   71   73 ar   
    77   73   74 1    
    78   73   75 ar   
    79   75   76 1    
    80   77   81 1    
    81   77   78 1    
    82   77   79 1    
    83   77   80 1    
    84   81   86 2    
    85   81   82 1    
    86   82   83 1    
    87   82   84 1    
    88   82   85 1    
    89   87   89 1    
    90   87   91 1    
    91   87   88 1    
    92   87   90 1    
    93   91   96 2    
    94   91   92 1    
    95   92   94 1    
    96   92   93 1    
    97   92   95 1    
@<TRIPOS>SUBSTRUCTURE
     1 UNK         1 GROUP             0       ****    0 ROOT    
@<TRIPOS>MOLECULE
Cpd4-3000
96   97    1
SMALL
USER_CHARGES


@<TRIPOS>ATOM
      1 C1         -4.5658   -2.1301   -3.1564 C.3       1 UNK         0.0000 
      2 H2         -3.5751   -2.1385   -3.6139 H         1 UNK         0.0000 
      3 H3         -5.1228   -3.0028   -3.5093 H         1 UNK         0.0000 
      4 H4         -5.1011   -1.2298   -3.4731 H         1 UNK         0.0000 
      5 C5         -4.4772   -2.1799   -1.6337 C.3       1 UNK         0.0000 
      6 C6         -3.6596   -3.3675   -1.1345 C.3       1 UNK         0.0000 
      7 H7         -2.6606   -3.3864   -1.5716 H         1 UNK         0.0000 
      8 H8         -3.5650   -3.3434   -0.0428 H         1 UNK         0.0000 
      9 H9         -4.1764   -4.2937   -1.4036 H         1 UNK         0.0000 
     10 C10        -5.8712   -2.2088   -1.0173 C.3       1 UNK         0.0000 
     11 H11        -6.4095   -3.0942   -1.3650 H         1 UNK         0.0000 
     12 H12        -5.8060   -2.2540    0.0745 H         1 UNK         0.0000 
     13 H13        -6.4374   -1.3181   -1.3045 H         1 UNK         0.0000 
     14 O14        -3.9247   -0.9215   -1.1223 O.3       1 UNK         0.0000 
     15 C15        -2.6793   -0.5351   -1.4516 C.2       1 UNK         0.0000 
     16 O16        -1.9075   -1.1805   -2.1529 O.2       1 UNK         0.0000 
     17 N17        -2.3841    0.6742   -0.9153 N.am      1 UNK         0.0000 
     18 H18        -3.0105    1.0616   -0.1958 H         1 UNK         0.0000 
     19 C19        -1.0099    1.1536   -0.9476 C.3       1 UNK         0.0000 
     20 C20        -0.2466    0.4039    0.1568 C.2       1 UNK         0.0000 
     21 N21         0.5059   -0.6415   -0.2655 N.am      1 UNK         0.0000 
     22 H22         0.4474   -0.8807   -1.2597 H         1 UNK         0.0000 
     23 O23        -0.4073    0.6984    1.3413 O.2       1 UNK         0.0000 
     24 H24        -0.5869    0.8969   -1.9243 H         1 UNK         0.0000 
     25 C25        -0.9543    2.6712   -0.7391 C.3       1 UNK         0.0000 
     26 H26        -1.3999    2.9150    0.2300 H         1 UNK         0.0000 
     27 H27        -1.5506    3.1448   -1.5256 H         1 UNK         0.0000 
     28 C28         0.4898    3.1048   -0.7997 C.ar      1 UNK         0.0000 
     29 C29         1.1699    3.0678   -2.0235 C.ar      1 UNK         0.0000 
     30 C30         2.5545    3.1816   -2.0736 C.ar      1 UNK         0.0000 
     31 H31         3.0913    3.0830   -3.0119 H         1 UNK         0.0000 
     32 H32         0.6154    2.8921   -2.9425 H         1 UNK         0.0000 
     33 C33         1.2155    3.3776    0.3622 C.ar      1 UNK         0.0000 
     34 H34         0.6979    3.4273    1.3157 H         1 UNK         0.0000 
     35 C35         2.6057    3.5014    0.3269 C.ar      1 UNK         0.0000 
     36 H36         3.1794    3.6488    1.2364 H         1 UNK         0.0000 
     37 C37         3.2634    3.3370   -0.8850 C.ar      1 UNK         0.0000 
     38 O38         4.6560    3.1895   -0.9058 O.3       1 UNK         0.0000 
     39 C39         4.9397    1.8331   -1.0308 C.ar      1 UNK         0.0000 
     40 C40         4.6740    0.9817    0.0425 C.ar      1 UNK         0.0000 
     41 C41         4.7188   -0.3908   -0.1541 C.ar      1 UNK         0.0000 
     42 H42         4.4633   -1.0550    0.6670 H         1 UNK         0.0000 
     43 H43         4.3679    1.3972    0.9966 H         1 UNK         0.0000 
     44 C44         5.3810    1.3380   -2.2548 C.ar      1 UNK         0.0000 
     45 H45         5.6037    2.0264   -3.0631 H         1 UNK         0.0000 
     46 C46         5.4428   -0.0409   -2.4380 C.ar      1 UNK         0.0000 
     47 H47         5.7265   -0.4544   -3.4008 H         1 UNK         0.0000 
     48 C48         5.0613   -0.9087   -1.4097 C.ar      1 UNK         0.0000 
     49 C49         4.9459   -2.3635   -1.7017 C.2       1 UNK         0.0000 
     50 O50         5.5819   -2.8922   -2.5970 O.2       1 UNK         0.0000 
     51 C51         3.9698   -3.2016   -0.8736 C.3       1 UNK         0.0000 
     52 H52         3.8576   -4.1578   -1.3912 H         1 UNK         0.0000 
     53 H53         4.4091   -3.3929    0.1112 H         1 UNK         0.0000 
     54 N54         2.6818   -2.5684   -0.6689 N.am      1 UNK         0.0000 
     55 H55         2.1627   -2.2572   -1.4969 H         1 UNK         0.0000 
     56 C56         2.1951   -2.3226    0.5643 C.2       1 UNK         0.0000 
     57 O57         2.8045   -2.6102    1.5976 O.2       1 UNK         0.0000 
     58 C58         0.7904   -1.7264    0.6651 C.3       1 UNK         0.0000 
     59 H59         0.7302   -1.3092    1.6717 H         1 UNK         0.0000 
     60 C60        -0.2900   -2.8084    0.4959 C.3       1 UNK         0.0000 
     61 H61        -0.3023   -3.1449   -0.5502 H         1 UNK         0.0000 
     62 H62        -1.2573   -2.3194    0.6752 H         1 UNK         0.0000 
     63 C63        -0.1463   -4.0096    1.4359 C.3       1 UNK         0.0000 
     64 H64         0.7458   -4.5880    1.1694 H         1 UNK         0.0000 
     65 H65        -0.0072   -3.6541    2.4632 H         1 UNK         0.0000 
     66 C66        -1.3773   -4.8792    1.3542 C.ar      1 UNK         0.0000 
     67 C67        -2.4251   -4.7166    2.2664 C.ar      1 UNK         0.0000 
     68 H68        -2.3200   -3.9973    3.0754 H         1 UNK         0.0000 
     69 C69        -3.5983   -5.4627    2.1475 C.ar      1 UNK         0.0000 
     70 H70        -4.4013   -5.3247    2.8654 H         1 UNK         0.0000 
     71 C71        -3.7378   -6.3849    1.1101 C.ar      1 UNK         0.0000 
     72 H72        -4.6494   -6.9666    1.0151 H         1 UNK         0.0000 
     73 C73        -2.6971   -6.5569    0.1961 C.ar      1 UNK         0.0000 
     74 H74        -2.7974   -7.2735   -0.6137 H         1 UNK         0.0000 
     75 C75        -1.5272   -5.8083    0.3188 C.ar      1 UNK         0.0000 
     76 H76        -0.7200   -5.9422   -0.3985 H         1 UNK         0.0000 
     77 C77        -0.2866   -1.0417   -4.9524 C.3       1 UNK         0.0000 
     78 H78        -1.0462   -0.8042   -4.2046 H         1 UNK         0.0000 
     79 H79        -0.7179   -1.5318   -5.8276 H         1 UNK         0.0000 
     80 H80         0.2630   -0.1506   -5.2577 H         1 UNK         0.0000 
     81 S81         0.9055   -2.1617   -4.1974 S.3       1 UNK         0.0000 
     82 C82        -0.2417   -3.4537   -3.6804 C.3       1 UNK         0.0000 
     83 H83         0.3361   -4.1874   -3.1155 H         1 UNK         0.0000 
     84 H84        -0.6663   -3.9210   -4.5714 H         1 UNK         0.0000 
     85 H85        -1.0131   -2.9895   -3.0621 H         1 UNK         0.0000 
     86 O86         1.3376   -1.4551   -2.8947 O.2       1 UNK         0.0000 
     87 C87        -3.3373   -0.5967    2.2015 C.3       1 UNK         0.0000 
     88 H88        -3.6349   -1.0458    1.2496 H         1 UNK         0.0000 
     89 H89        -3.5805   -1.2525    3.0403 H         1 UNK         0.0000 
     90 H90        -2.2720   -0.3520    2.1979 H         1 UNK         0.0000 
     91 S91        -4.2270    0.9611    2.4175 S.3       1 UNK         0.0000 
     92 C92        -5.8904    0.3392    2.1029 C.3       1 UNK         0.0000 
     93 H93        -5.9077   -0.0746    1.0920 H         1 UNK         0.0000 
     94 H94        -6.5754    1.1838    2.1822 H         1 UNK         0.0000 
     95 H95        -6.1416   -0.4191    2.8469 H         1 UNK         0.0000 
     96 O96        -3.8923    1.8183    1.1851 O.2       1 UNK         0.0000 
@<TRIPOS>BOND
     1    1    2 1    
     2    1    3 1    
     3    1    4 1    
     4    1    5 1    
     5    5    6 1    
     6    5   10 1    
     7    5   14 1    
     8    6    7 1    
     9    6    9 1    
    10    6    8 1    
    11   10   11 1    
    12   10   13 1    
    13   10   12 1    
    14   14   15 1    
    15   15   16 2    
    16   15   17 am   BACKBONE|DICT|INTERRES
    17   17   18 1    
    18   17   19 1    
    19   19   24 1    
    20   19   20 1    
    21   19   25 1    
    22   20   21 am   BACKBONE|DICT|INTERRES
    23   20   23 2    
    24   21   22 1    
    25   21   58 1    
    26   25   27 1    
    27   25   26 1    
    28   25   28 1    
    29   28   29 ar   
    30   28   33 ar   
    31   29   32 1    
    32   29   30 ar   
    33   30   31 1    
    34   30   37 ar   
    35   33   34 1    
    36   33   35 ar   
    37   35   37 ar   
    38   35   36 1    
    39   37   38 1    
    40   38   39 1    
    41   39   44 ar   
    42   39   40 ar   
    43   40   41 ar   
    44   40   43 1    
    45   41   48 ar   
    46   41   42 1    
    47   44   46 ar   
    48   44   45 1    
    49   46   47 1    
    50   46   48 ar   
    51   48   49 1    
    52   49   50 2    
    53   49   51 1    
    54   51   54 1    
    55   51   52 1    
    56   51   53 1    
    57   54   55 1    
    58   54   56 am   BACKBONE|DICT|INTERRES
    59   56   58 1    
    60   56   57 2    
    61   58   59 1    
    62   58   60 1    
    63   60   62 1    
    64   60   61 1    
    65   60   63 1    
    66   63   66 1    
    67   63   64 1    
    68   63   65 1    
    69   66   75 ar   
    70   66   67 ar   
    71   67   69 ar   
    72   67   68 1    
    73   69   71 ar   
    74   69   70 1    
    75   71   72 1    
    76   71   73 ar   
    77   73   74 1    
    78   73   75 ar   
    79   75   76 1    
    80   77   80 1    
    81   77   79 1    
    82   77   78 1    
    83   77   81 1    
    84   81   82 1    
    85   81   86 2    
    86   82   84 1    
    87   82   83 1    
    88   82   85 1    
    89   87   91 1    
    90   87   88 1    
    91   87   89 1    
    92   87   90 1    
    93   91   92 1    
    94   91   96 2    
    95   92   94 1    
    96   92   93 1    
    97   92   95 1    
@<TRIPOS>SUBSTRUCTURE
     1 UNK         1 GROUP             0       ****    0 ROOT    
@<TRIPOS>MOLECULE
Cpd4-3500
96   97    1
SMALL
USER_CHARGES


@<TRIPOS>ATOM
      1 C1         -5.0729   -2.3078   -2.0981 C.3       1 UNK         0.0000 
      2 H2         -5.3824   -1.6377   -2.9064 H         1 UNK         0.0000 
      3 H3         -4.0507   -2.6450   -2.2743 H         1 UNK         0.0000 
      4 H4         -5.7327   -3.1809   -2.1003 H         1 UNK         0.0000 
      5 C5         -5.1912   -1.5958   -0.7539 C.3       1 UNK         0.0000 
      6 C6         -4.7321   -2.4674    0.4122 C.3       1 UNK         0.0000 
      7 H7         -3.7257   -2.8563    0.2504 H         1 UNK         0.0000 
      8 H8         -4.7558   -1.8905    1.3431 H         1 UNK         0.0000 
      9 H9         -5.4187   -3.3134    0.5159 H         1 UNK         0.0000 
     10 C10        -6.6201   -1.1140   -0.5293 C.3       1 UNK         0.0000 
     11 H11        -7.2996   -1.9701   -0.5169 H         1 UNK         0.0000 
     12 H12        -6.7037   -0.5915    0.4284 H         1 UNK         0.0000 
     13 H13        -6.9259   -0.4343   -1.3296 H         1 UNK         0.0000 
     14 O14        -4.4313   -0.3458   -0.7845 O.3       1 UNK         0.0000 
     15 C15        -3.0962   -0.3536   -0.9492 C.2       1 UNK         0.0000 
     16 O16        -2.4039   -1.3558   -1.0815 O.2       1 UNK         0.0000 
     17 N17        -2.6048    0.9082   -0.9567 N.am      1 UNK         0.0000 
     18 H18        -3.2189    1.6716   -0.6533 H         1 UNK         0.0000 
     19 C19        -1.1704    1.1325   -0.9622 C.3       1 UNK         0.0000 
     20 C20        -0.5104    0.3513    0.1878 C.2       1 UNK         0.0000 
     21 N21         0.4475   -0.5389   -0.1604 N.am      1 UNK         0.0000 
     22 H22         0.5262   -0.7609   -1.1547 H         1 UNK         0.0000 
     23 O23        -0.8601    0.5524    1.3512 O.2       1 UNK         0.0000 
     24 H24        -0.7430    0.7921   -1.9151 H         1 UNK         0.0000 
     25 C25        -0.9314    2.6428   -0.7904 C.3       1 UNK         0.0000 
     26 H26        -1.3754    2.9517    0.1611 H         1 UNK         0.0000 
     27 H27        -1.4709    3.1591   -1.5916 H         1 UNK         0.0000 
     28 C28         0.5359    2.9788   -0.8254 C.ar      1 UNK         0.0000 
     29 C29         1.2351    2.9405   -2.0374 C.ar      1 UNK         0.0000 
     30 C30         2.6178    3.0811   -2.0663 C.ar      1 UNK         0.0000 
     31 H31         3.1687    2.9994   -2.9979 H         1 UNK         0.0000 
     32 H32         0.6956    2.7631   -2.9647 H         1 UNK         0.0000 
     33 C33         1.2418    3.2482    0.3497 C.ar      1 UNK         0.0000 
     34 H34         0.7070    3.3021    1.2941 H         1 UNK         0.0000 
     35 C35         2.6301    3.3944    0.3359 C.ar      1 UNK         0.0000 
     36 H36         3.1879    3.5537    1.2531 H         1 UNK         0.0000 
     37 C37         3.3069    3.2613   -0.8693 C.ar      1 UNK         0.0000 
     38 O38         4.7057    3.1783   -0.8741 O.3       1 UNK         0.0000 
     39 C39         5.0398    1.8352   -1.0176 C.ar      1 UNK         0.0000 
     40 C40         4.8322    0.9722    0.0593 C.ar      1 UNK         0.0000 
     41 C41         4.8632   -0.3964   -0.1593 C.ar      1 UNK         0.0000 
     42 H42         4.6330   -1.0739    0.6587 H         1 UNK         0.0000 
     43 H43         4.5647    1.3770    1.0294 H         1 UNK         0.0000 
     44 C44         5.4431    1.3600   -2.2617 C.ar      1 UNK         0.0000 
     45 H45         5.6296    2.0595   -3.0697 H         1 UNK         0.0000 
     46 C46         5.4928   -0.0164   -2.4675 C.ar      1 UNK         0.0000 
     47 H47         5.7281   -0.4165   -3.4489 H         1 UNK         0.0000 
     48 C48         5.1395   -0.8945   -1.4390 C.ar      1 UNK         0.0000 
     49 C49         4.9257   -2.3295   -1.7638 C.2       1 UNK         0.0000 
     50 O50         5.5260   -2.8906   -2.6636 O.2       1 UNK         0.0000 
     51 C51         3.8698   -3.0958   -0.9656 C.3       1 UNK         0.0000 
     52 H52         3.6285   -3.9960   -1.5378 H         1 UNK         0.0000 
     53 H53         4.3065   -3.4058   -0.0103 H         1 UNK         0.0000 
     54 N54         2.6716   -2.3312   -0.6736 N.am      1 UNK         0.0000 
     55 H55         2.1380   -1.9625   -1.4642 H         1 UNK         0.0000 
     56 C56         2.2371   -2.1643    0.5935 C.2       1 UNK         0.0000 
     57 O57         2.8600   -2.5906    1.5695 O.2       1 UNK         0.0000 
     58 C58         0.8802   -1.5080    0.8390 C.3       1 UNK         0.0000 
     59 H59         0.9884   -0.9653    1.7796 H         1 UNK         0.0000 
     60 C60        -0.1766   -2.6172    1.0410 C.3       1 UNK         0.0000 
     61 H61        -1.1307   -2.1236    1.2554 H         1 UNK         0.0000 
     62 H62         0.1097   -3.1977    1.9237 H         1 UNK         0.0000 
     63 C63        -0.3341   -3.5209   -0.1845 C.3       1 UNK         0.0000 
     64 H64        -0.4298   -2.8852   -1.0733 H         1 UNK         0.0000 
     65 H65         0.5722   -4.1286   -0.3156 H         1 UNK         0.0000 
     66 C66        -1.5400   -4.4317   -0.1292 C.ar      1 UNK         0.0000 
     67 C67        -2.2984   -4.6611   -1.2818 C.ar      1 UNK         0.0000 
     68 H68        -2.0259   -4.1566   -2.2061 H         1 UNK         0.0000 
     69 C69        -3.4125   -5.4983   -1.2595 C.ar      1 UNK         0.0000 
     70 H70        -3.9913   -5.6502   -2.1660 H         1 UNK         0.0000 
     71 C71        -3.7934   -6.1219   -0.0716 C.ar      1 UNK         0.0000 
     72 H72        -4.6660   -6.7673   -0.0467 H         1 UNK         0.0000 
     73 C73        -3.0465   -5.9036    1.0860 C.ar      1 UNK         0.0000 
     74 H74        -3.3338   -6.3828    2.0172 H         1 UNK         0.0000 
     75 C75        -1.9287   -5.0689    1.0552 C.ar      1 UNK         0.0000 
     76 H76        -1.3607   -4.9107    1.9679 H         1 UNK         0.0000 
     77 C77        -4.0306    1.3628    2.1224 C.3       1 UNK         0.0000 
     78 H78        -4.2879    1.2526    3.1779 H         1 UNK         0.0000 
     79 H79        -2.9626    1.1854    1.9650 H         1 UNK         0.0000 
     80 H80        -4.6207    0.6897    1.4948 H         1 UNK         0.0000 
     81 S81        -4.3772    3.0589    1.6160 S.3       1 UNK         0.0000 
     82 C82        -6.1710    3.0128    1.7987 C.3       1 UNK         0.0000 
     83 H83        -6.5563    3.9773    1.4671 H         1 UNK         0.0000 
     84 H84        -6.4197    2.8512    2.8494 H         1 UNK         0.0000 
     85 H85        -6.5617    2.2081    1.1721 H         1 UNK         0.0000 
     86 O86        -4.1322    3.0916    0.0973 O.2       1 UNK         0.0000 
     87 C87        -1.0958   -1.6153   -4.0316 C.3       1 UNK         0.0000 
     88 H88        -1.3990   -1.9460   -3.0339 H         1 UNK         0.0000 
     89 H89        -1.5533   -2.2174   -4.8196 H         1 UNK         0.0000 
     90 H90        -1.3592   -0.5648   -4.1669 H         1 UNK         0.0000 
     91 S91         0.6965   -1.7340   -4.1710 S.3       1 UNK         0.0000 
     92 C92         0.8711   -3.5165   -3.9581 C.3       1 UNK         0.0000 
     93 H93         1.9395   -3.7365   -3.9636 H         1 UNK         0.0000 
     94 H94         0.3834   -4.0232   -4.7929 H         1 UNK         0.0000 
     95 H95         0.4237   -3.8087   -3.0052 H         1 UNK         0.0000 
     96 O96         1.2362   -1.1208   -2.8610 O.2       1 UNK         0.0000 
@<TRIPOS>BOND
     1    1    2 1    
     2    1    3 1    
     3    1    4 1    
     4    1    5 1    
     5    5   14 1    
     6    5   10 1    
     7    5    6 1    
     8    6    7 1    
     9    6    8 1    
    10    6    9 1    
    11   10   13 1    
    12   10   11 1    
    13   10   12 1    
    14   14   15 1    
    15   15   17 am   BACKBONE|DICT|INTERRES
    16   15   16 2    
    17   17   18 1    
    18   17   19 1    
    19   19   25 1    
    20   19   24 1    
    21   19   20 1    
    22   20   21 am   BACKBONE|DICT|INTERRES
    23   20   23 2    
    24   21   22 1    
    25   21   58 1    
    26   25   27 1    
    27   25   26 1    
    28   25   28 1    
    29   28   29 ar   
    30   28   33 ar   
    31   29   32 1    
    32   29   30 ar   
    33   30   31 1    
    34   30   37 ar   
    35   33   34 1    
    36   33   35 ar   
    37   35   37 ar   
    38   35   36 1    
    39   37   38 1    
    40   38   39 1    
    41   39   44 ar   
    42   39   40 ar   
    43   40   41 ar   
    44   40   43 1    
    45   41   48 ar   
    46   41   42 1    
    47   44   45 1    
    48   44   46 ar   
    49   46   47 1    
    50   46   48 ar   
    51   48   49 1    
    52   49   50 2    
    53   49   51 1    
    54   51   54 1    
    55   51   52 1    
    56   51   53 1    
    57   54   55 1    
    58   54   56 am   BACKBONE|DICT|INTERRES
    59   56   58 1    
    60   56   57 2    
    61   58   59 1    
    62   58   60 1    
    63   60   61 1    
    64   60   63 1    
    65   60   62 1    
    66   63   66 1    
    67   63   64 1    
    68   63   65 1    
    69   66   67 ar   
    70   66   75 ar   
    71   67   69 ar   
    72   67   68 1    
    73   69   70 1    
    74   69   71 ar   
    75   71   72 1    
    76   71   73 ar   
    77   73   74 1    
    78   73   75 ar   
    79   75   76 1    
    80   77   80 1    
    81   77   81 1    
    82   77   78 1    
    83   77   79 1    
    84   81   82 1    
    85   81   86 2    
    86   82   85 1    
    87   82   83 1    
    88   82   84 1    
    89   87   90 1    
    90   87   89 1    
    91   87   88 1    
    92   87   91 1    
    93   91   92 1    
    94   91   96 2    
    95   92   94 1    
    96   92   93 1    
    97   92   95 1    
@<TRIPOS>SUBSTRUCTURE
     1 UNK         1 GROUP             0       ****    0 ROOT    
@<TRIPOS>MOLECULE
Cpd4-4000
96   97    1
SMALL
USER_CHARGES


@<TRIPOS>ATOM
      1 C1         -3.8831   -2.0024   -4.0482 C.3       1 UNK         0.0000 
      2 H2         -2.8294   -2.0532   -4.3245 H         1 UNK         0.0000 
      3 H3         -4.4328   -2.7646   -4.6081 H         1 UNK         0.0000 
      4 H4         -4.2809   -1.0213   -4.3261 H         1 UNK         0.0000 
      5 C5         -4.0869   -2.2475   -2.5547 C.3       1 UNK         0.0000 
      6 C6         -3.3942   -3.5196   -2.0759 C.3       1 UNK         0.0000 
      7 H7         -2.3164   -3.4667   -2.2396 H         1 UNK         0.0000 
      8 H8         -3.5893   -3.6800   -1.0115 H         1 UNK         0.0000 
      9 H9         -3.7912   -4.3725   -2.6350 H         1 UNK         0.0000 
     10 C10        -5.5739   -2.2947   -2.2235 C.3       1 UNK         0.0000 
     11 H11        -6.0715   -1.3816   -2.5626 H         1 UNK         0.0000 
     12 H12        -6.0352   -3.1517   -2.7216 H         1 UNK         0.0000 
     13 H13        -5.7160   -2.3981   -1.1442 H         1 UNK         0.0000 
     14 O14        -3.6229   -1.0956   -1.7784 O.3       1 UNK         0.0000 
     15 C15        -2.3614   -0.6530   -1.8848 C.2       1 UNK         0.0000 
     16 O16        -1.4799   -1.1920   -2.5472 O.2       1 UNK         0.0000 
     17 N17        -2.1914    0.4936   -1.1747 N.am      1 UNK         0.0000 
     18 H18        -2.8701    0.7059   -0.4325 H         1 UNK         0.0000 
     19 C19        -0.8562    1.0547   -1.0262 C.3       1 UNK         0.0000 
     20 C20        -0.1995    0.3626    0.1787 C.2       1 UNK         0.0000 
     21 N21         0.4507   -0.7793   -0.1363 N.am      1 UNK         0.0000 
     22 H22         0.4554   -1.0324   -1.1257 H         1 UNK         0.0000 
     23 O23        -0.3562    0.7744    1.3287 O.2       1 UNK         0.0000 
     24 H24        -0.2943    0.7998   -1.9306 H         1 UNK         0.0000 
     25 C25        -0.8953    2.5774   -0.8535 C.3       1 UNK         0.0000 
     26 H26        -1.3997    2.8256    0.0854 H         1 UNK         0.0000 
     27 H27        -1.4755    2.9970   -1.6812 H         1 UNK         0.0000 
     28 C28         0.5271    3.0833   -0.8690 C.ar      1 UNK         0.0000 
     29 C29         1.2286    3.1053   -2.0809 C.ar      1 UNK         0.0000 
     30 C30         2.6096    3.2608   -2.1040 C.ar      1 UNK         0.0000 
     31 H31         3.1640    3.2003   -3.0353 H         1 UNK         0.0000 
     32 H32         0.6956    2.9330   -3.0132 H         1 UNK         0.0000 
     33 C33         1.2234    3.3537    0.3114 C.ar      1 UNK         0.0000 
     34 H34         0.6895    3.3602    1.2571 H         1 UNK         0.0000 
     35 C35         2.6101    3.5166    0.3041 C.ar      1 UNK         0.0000 
     36 H36         3.1632    3.6528    1.2279 H         1 UNK         0.0000 
     37 C37         3.2937    3.3964   -0.8989 C.ar      1 UNK         0.0000 
     38 O38         4.6884    3.2545   -0.8960 O.3       1 UNK         0.0000 
     39 C39         4.9664    1.8969   -1.0294 C.ar      1 UNK         0.0000 
     40 C40         4.7216    1.0458    0.0491 C.ar      1 UNK         0.0000 
     41 C41         4.7401   -0.3264   -0.1539 C.ar      1 UNK         0.0000 
     42 H42         4.4976   -0.9891    0.6717 H         1 UNK         0.0000 
     43 H43         4.4497    1.4631    1.0126 H         1 UNK         0.0000 
     44 C44         5.3711    1.3999   -2.2655 C.ar      1 UNK         0.0000 
     45 H45         5.5829    2.0876   -3.0774 H         1 UNK         0.0000 
     46 C46         5.4047    0.0214   -2.4555 C.ar      1 UNK         0.0000 
     47 H47         5.6534   -0.3930   -3.4277 H         1 UNK         0.0000 
     48 C48         5.0362   -0.8452   -1.4212 C.ar      1 UNK         0.0000 
     49 C49         4.8700   -2.2918   -1.7254 C.2       1 UNK         0.0000 
     50 O50         5.4343   -2.8198   -2.6688 O.2       1 UNK         0.0000 
     51 C51         3.9304   -3.1188   -0.8512 C.3       1 UNK         0.0000 
     52 H52         3.7699   -4.0718   -1.3640 H         1 UNK         0.0000 
     53 H53         4.4204   -3.3299    0.1061 H         1 UNK         0.0000 
     54 N54         2.6775   -2.4412   -0.5752 N.am      1 UNK         0.0000 
     55 H55         2.2626   -1.8882   -1.3323 H         1 UNK         0.0000 
     56 C56         2.1282   -2.4686    0.6551 C.2       1 UNK         0.0000 
     57 O57         2.6397   -3.0697    1.6029 O.2       1 UNK         0.0000 
     58 C58         0.7851   -1.7703    0.8693 C.3       1 UNK         0.0000 
     59 H59         0.8738   -1.2408    1.8222 H         1 UNK         0.0000 
     60 C60        -0.3237   -2.8354    0.9913 C.3       1 UNK         0.0000 
     61 H61         0.0214   -3.5944    1.7005 H         1 UNK         0.0000 
     62 H62        -0.4571   -3.3242    0.0155 H         1 UNK         0.0000 
     63 C63        -1.6386   -2.2133    1.4585 C.3       1 UNK         0.0000 
     64 H64        -1.4820   -1.7567    2.4450 H         1 UNK         0.0000 
     65 H65        -1.9138   -1.3845    0.7950 H         1 UNK         0.0000 
     66 C66        -2.8250   -3.1481    1.5252 C.ar      1 UNK         0.0000 
     67 C67        -2.6960   -4.5329    1.6657 C.ar      1 UNK         0.0000 
     68 H68        -1.7109   -4.9865    1.7232 H         1 UNK         0.0000 
     69 C69        -3.8252   -5.3539    1.7188 C.ar      1 UNK         0.0000 
     70 H70        -3.7031   -6.4283    1.8188 H         1 UNK         0.0000 
     71 C71        -5.1022   -4.8006    1.6427 C.ar      1 UNK         0.0000 
     72 H72        -5.9790   -5.4392    1.6834 H         1 UNK         0.0000 
     73 C73        -5.2431   -3.4179    1.5078 C.ar      1 UNK         0.0000 
     74 H74        -6.2327   -2.9755    1.4370 H         1 UNK         0.0000 
     75 C75        -4.1145   -2.6045    1.4412 C.ar      1 UNK         0.0000 
     76 H76        -4.2262   -1.5319    1.2883 H         1 UNK         0.0000 
     77 C77         0.6724   -3.0799   -3.8315 C.3       1 UNK         0.0000 
     78 H78         0.4155   -3.5283   -4.7934 H         1 UNK         0.0000 
     79 H79        -0.2015   -3.0488   -3.1801 H         1 UNK         0.0000 
     80 H80         1.5020   -3.6124   -3.3601 H         1 UNK         0.0000 
     81 S81         1.1573   -1.3634   -4.0937 S.3       1 UNK         0.0000 
     82 C82         2.6757   -1.6642   -5.0202 C.3       1 UNK         0.0000 
     83 H83         3.3355   -2.2949   -4.4192 H         1 UNK         0.0000 
     84 H84         3.1375   -0.6931   -5.2023 H         1 UNK         0.0000 
     85 H85         2.4267   -2.1438   -5.9689 H         1 UNK         0.0000 
     86 O86         1.6492   -0.8730   -2.7168 O.2       1 UNK         0.0000 
     87 C87        -4.7144    0.9858    3.5678 C.3       1 UNK         0.0000 
     88 H88        -5.3519    0.1375    3.3144 H         1 UNK         0.0000 
     89 H89        -5.2240    1.9262    3.3483 H         1 UNK         0.0000 
     90 H90        -4.4206    0.9309    4.6178 H         1 UNK         0.0000 
     91 S91        -3.2398    0.8677    2.5335 S.3       1 UNK         0.0000 
     92 C92        -2.4533    2.4071    3.0408 C.3       1 UNK         0.0000 
     93 H93        -3.1306    3.2333    2.8139 H         1 UNK         0.0000 
     94 H94        -1.5285    2.4756    2.4678 H         1 UNK         0.0000 
     95 H95        -2.2345    2.3573    4.1095 H         1 UNK         0.0000 
     96 O96        -3.7614    1.1225    1.1079 O.2       1 UNK         0.0000 
@<TRIPOS>BOND
     1    1    3 1    
     2    1    4 1    
     3    1    2 1    
     4    1    5 1    
     5    5   10 1    
     6    5    6 1    
     7    5   14 1    
     8    6    9 1    
     9    6    7 1    
    10    6    8 1    
    11   10   12 1    
    12   10   11 1    
    13   10   13 1    
    14   14   15 1    
    15   15   16 2    
    16   15   17 am   BACKBONE|DICT|INTERRES
    17   17   18 1    
    18   17   19 1    
    19   19   24 1    
    20   19   25 1    
    21   19   20 1    
    22   20   21 am   BACKBONE|DICT|INTERRES
    23   20   23 2    
    24   21   22 1    
    25   21   58 1    
    26   25   27 1    
    27   25   26 1    
    28   25   28 1    
    29   28   29 ar   
    30   28   33 ar   
    31   29   32 1    
    32   29   30 ar   
    33   30   31 1    
    34   30   37 ar   
    35   33   34 1    
    36   33   35 ar   
    37   35   37 ar   
    38   35   36 1    
    39   37   38 1    
    40   38   39 1    
    41   39   44 ar   
    42   39   40 ar   
    43   40   41 ar   
    44   40   43 1    
    45   41   48 ar   
    46   41   42 1    
    47   44   45 1    
    48   44   46 ar   
    49   46   47 1    
    50   46   48 ar   
    51   48   49 1    
    52   49   50 2    
    53   49   51 1    
    54   51   52 1    
    55   51   54 1    
    56   51   53 1    
    57   54   55 1    
    58   54   56 am   BACKBONE|DICT|INTERRES
    59   56   58 1    
    60   56   57 2    
    61   58   59 1    
    62   58   60 1    
    63   60   63 1    
    64   60   62 1    
    65   60   61 1    
    66   63   65 1    
    67   63   64 1    
    68   63   66 1    
    69   66   75 ar   
    70   66   67 ar   
    71   67   69 ar   
    72   67   68 1    
    73   69   71 ar   
    74   69   70 1    
    75   71   72 1    
    76   71   73 ar   
    77   73   74 1    
    78   73   75 ar   
    79   75   76 1    
    80   77   78 1    
    81   77   81 1    
    82   77   79 1    
    83   77   80 1    
    84   81   82 1    
    85   81   86 2    
    86   82   84 1    
    87   82   85 1    
    88   82   83 1    
    89   87   88 1    
    90   87   91 1    
    91   87   89 1    
    92   87   90 1    
    93   91   96 2    
    94   91   92 1    
    95   92   94 1    
    96   92   93 1    
    97   92   95 1    
@<TRIPOS>SUBSTRUCTURE
     1 UNK         1 GROUP             0       ****    0 ROOT    
@<TRIPOS>MOLECULE
Cpd4-4500
96   97    1
SMALL
USER_CHARGES


@<TRIPOS>ATOM
      1 C1         -4.2245   -1.6326   -4.2492 C.3       1 UNK         0.0000 
      2 H2         -4.7697   -2.3947   -4.8137 H         1 UNK         0.0000 
      3 H3         -4.6326   -0.6525   -4.5162 H         1 UNK         0.0000 
      4 H4         -3.1717   -1.6714   -4.5309 H         1 UNK         0.0000 
      5 C5         -4.4131   -1.8903   -2.7569 C.3       1 UNK         0.0000 
      6 C6         -3.7701   -3.1978   -2.3040 C.3       1 UNK         0.0000 
      7 H7         -4.2861   -4.0339   -2.7853 H         1 UNK         0.0000 
      8 H8         -2.7132   -3.2376   -2.5716 H         1 UNK         0.0000 
      9 H9         -3.8702   -3.3111   -1.2198 H         1 UNK         0.0000 
     10 C10        -5.8947   -1.8745   -2.3983 C.3       1 UNK         0.0000 
     11 H11        -6.4063   -2.6923   -2.9125 H         1 UNK         0.0000 
     12 H12        -6.0285   -1.9970   -1.3200 H         1 UNK         0.0000 
     13 H13        -6.3553   -0.9304   -2.7050 H         1 UNK         0.0000 
     14 O14        -3.8812   -0.7702   -1.9790 O.3       1 UNK         0.0000 
     15 C15        -2.5746   -0.4469   -2.0284 C.2       1 UNK         0.0000 
     16 O16        -1.7293   -1.0278   -2.7026 O.2       1 UNK         0.0000 
     17 N17        -2.3239    0.6219   -1.2404 N.am      1 UNK         0.0000 
     18 H18        -3.0775    0.9700   -0.6345 H         1 UNK         0.0000 
     19 C19        -0.9668    1.0970   -1.0555 C.3       1 UNK         0.0000 
     20 C20        -0.3591    0.3722    0.1565 C.2       1 UNK         0.0000 
     21 N21         0.4752   -0.6464   -0.1347 N.am      1 UNK         0.0000 
     22 H22         0.6602   -0.8333   -1.1240 H         1 UNK         0.0000 
     23 O23        -0.6799    0.6850    1.3045 O.2       1 UNK         0.0000 
     24 H24        -0.4048    0.8332   -1.9557 H         1 UNK         0.0000 
     25 C25        -0.9295    2.6186   -0.8607 C.3       1 UNK         0.0000 
     26 H26        -1.4284    2.8757    0.0788 H         1 UNK         0.0000 
     27 H27        -1.4800    3.0793   -1.6869 H         1 UNK         0.0000 
     28 C28         0.5135    3.0581   -0.8535 C.ar      1 UNK         0.0000 
     29 C29         1.2221    3.1040   -2.0610 C.ar      1 UNK         0.0000 
     30 C30         2.6059    3.2354   -2.0707 C.ar      1 UNK         0.0000 
     31 H31         3.1649    3.2151   -3.0010 H         1 UNK         0.0000 
     32 H32         0.6893    2.9847   -3.0020 H         1 UNK         0.0000 
     33 C33         1.2091    3.2587    0.3411 C.ar      1 UNK         0.0000 
     34 H34         0.6685    3.2440    1.2832 H         1 UNK         0.0000 
     35 C35         2.5988    3.3952    0.3460 C.ar      1 UNK         0.0000 
     36 H36         3.1494    3.4900    1.2766 H         1 UNK         0.0000 
     37 C37         3.2863    3.3208   -0.8584 C.ar      1 UNK         0.0000 
     38 O38         4.6813    3.1929   -0.8564 O.3       1 UNK         0.0000 
     39 C39         4.9784    1.8421   -1.0146 C.ar      1 UNK         0.0000 
     40 C40         4.7811    0.9761    0.0618 C.ar      1 UNK         0.0000 
     41 C41         4.8119   -0.3931   -0.1582 C.ar      1 UNK         0.0000 
     42 H42         4.6009   -1.0710    0.6648 H         1 UNK         0.0000 
     43 H43         4.5334    1.3788    1.0380 H         1 UNK         0.0000 
     44 C44         5.3511    1.3656   -2.2683 C.ar      1 UNK         0.0000 
     45 H45         5.5273    2.0655   -3.0786 H         1 UNK         0.0000 
     46 C46         5.4017   -0.0106   -2.4752 C.ar      1 UNK         0.0000 
     47 H47         5.6261   -0.4103   -3.4596 H         1 UNK         0.0000 
     48 C48         5.0765   -0.8919   -1.4401 C.ar      1 UNK         0.0000 
     49 C49         4.9026   -2.3361   -1.7571 C.2       1 UNK         0.0000 
     50 O50         5.5013   -2.8729   -2.6728 O.2       1 UNK         0.0000 
     51 C51         3.9004   -3.1421   -0.9311 C.3       1 UNK         0.0000 
     52 H52         3.6731   -4.0527   -1.4928 H         1 UNK         0.0000 
     53 H53         4.3677   -3.4309    0.0165 H         1 UNK         0.0000 
     54 N54         2.6916   -2.4055   -0.6218 N.am      1 UNK         0.0000 
     55 H55         2.1761   -2.0196   -1.4094 H         1 UNK         0.0000 
     56 C56         2.2238   -2.3114    0.6371 C.2       1 UNK         0.0000 
     57 O57         2.8047   -2.8241    1.5980 O.2       1 UNK         0.0000 
     58 C58         0.9479   -1.5147    0.9335 C.3       1 UNK         0.0000 
     59 H59         1.2464   -0.8623    1.7613 H         1 UNK         0.0000 
     60 C60        -0.1759   -2.4297    1.4727 C.3       1 UNK         0.0000 
     61 H61        -0.8525   -1.8018    2.0589 H         1 UNK         0.0000 
     62 H62         0.2807   -3.1501    2.1589 H         1 UNK         0.0000 
     63 C63        -0.9906   -3.1487    0.3891 C.3       1 UNK         0.0000 
     64 H64        -1.7755   -3.7290    0.8882 H         1 UNK         0.0000 
     65 H65        -1.4965   -2.4069   -0.2403 H         1 UNK         0.0000 
     66 C66        -0.1618   -4.0584   -0.4881 C.ar      1 UNK         0.0000 
     67 C67         0.4730   -5.1827    0.0550 C.ar      1 UNK         0.0000 
     68 H68         0.3391   -5.4168    1.1090 H         1 UNK         0.0000 
     69 C69         1.2775   -6.0007   -0.7358 C.ar      1 UNK         0.0000 
     70 H70         1.7638   -6.8673   -0.2980 H         1 UNK         0.0000 
     71 C71         1.4554   -5.7081   -2.0898 C.ar      1 UNK         0.0000 
     72 H72         2.0822   -6.3436   -2.7081 H         1 UNK         0.0000 
     73 C73         0.8283   -4.5913   -2.6399 C.ar      1 UNK         0.0000 
     74 H74         0.9679   -4.3557   -3.6908 H         1 UNK         0.0000 
     75 C75         0.0263   -3.7712   -1.8434 C.ar      1 UNK         0.0000 
     76 H76        -0.4409   -2.8824   -2.2641 H         1 UNK         0.0000 
     77 C77        -5.7116    1.9750   -2.0787 C.3       1 UNK         0.0000 
     78 H78        -6.6822    1.9291   -2.5773 H         1 UNK         0.0000 
     79 H79        -4.9893    1.3449   -2.5999 H         1 UNK         0.0000 
     80 H80        -5.3512    3.0039   -2.0106 H         1 UNK         0.0000 
     81 S81        -5.8723    1.3103   -0.4086 S.3       1 UNK         0.0000 
     82 C82        -6.9886    2.5659    0.2475 C.3       1 UNK         0.0000 
     83 H83        -6.5267    3.5471    0.1210 H         1 UNK         0.0000 
     84 H84        -7.1357    2.3457    1.3050 H         1 UNK         0.0000 
     85 H85        -7.9412    2.5063   -0.2827 H         1 UNK         0.0000 
     86 O86        -4.5217    1.5938    0.2712 O.2       1 UNK         0.0000 
     87 C87         0.3274   -1.6480   -5.0208 C.3       1 UNK         0.0000 
     88 H88        -0.5278   -2.0384   -4.4676 H         1 UNK         0.0000 
     89 H89         1.1173   -2.3947   -5.1239 H         1 UNK         0.0000 
     90 H90         0.0083   -1.2766   -5.9971 H         1 UNK         0.0000 
     91 S91         0.9651   -0.2665   -4.0581 S.3       1 UNK         0.0000 
     92 C92         2.4346    0.0845   -5.0413 C.3       1 UNK         0.0000 
     93 H93         2.1305    0.4326   -6.0303 H         1 UNK         0.0000 
     94 H94         3.0354   -0.8252   -5.1074 H         1 UNK         0.0000 
     95 H95         2.9855    0.8679   -4.5184 H         1 UNK         0.0000 
     96 O96         1.5295   -0.8872   -2.7683 O.2       1 UNK         0.0000 
@<TRIPOS>BOND
     1    1    4 1    
     2    1    3 1    
     3    1    2 1    
     4    1    5 1    
     5    5    6 1    
     6    5   10 1    
     7    5   14 1    
     8    6    8 1    
     9    6    7 1    
    10    6    9 1    
    11   10   13 1    
    12   10   11 1    
    13   10   12 1    
    14   14   15 1    
    15   15   16 2    
    16   15   17 am   BACKBONE|DICT|INTERRES
    17   17   18 1    
    18   17   19 1    
    19   19   24 1    
    20   19   20 1    
    21   19   25 1    
    22   20   21 am   BACKBONE|DICT|INTERRES
    23   20   23 2    
    24   21   22 1    
    25   21   58 1    
    26   25   28 1    
    27   25   27 1    
    28   25   26 1    
    29   28   29 ar   
    30   28   33 ar   
    31   29   30 ar   
    32   29   32 1    
    33   30   31 1    
    34   30   37 ar   
    35   33   35 ar   
    36   33   34 1    
    37   35   37 ar   
    38   35   36 1    
    39   37   38 1    
    40   38   39 1    
    41   39   44 ar   
    42   39   40 ar   
    43   40   41 ar   
    44   40   43 1    
    45   41   48 ar   
    46   41   42 1    
    47   44   46 ar   
    48   44   45 1    
    49   46   47 1    
    50   46   48 ar   
    51   48   49 1    
    52   49   50 2    
    53   49   51 1    
    54   51   52 1    
    55   51   53 1    
    56   51   54 1    
    57   54   55 1    
    58   54   56 am   BACKBONE|DICT|INTERRES
    59   56   57 2    
    60   56   58 1    
    61   58   59 1    
    62   58   60 1    
    63   60   63 1    
    64   60   61 1    
    65   60   62 1    
    66   63   65 1    
    67   63   66 1    
    68   63   64 1    
    69   66   75 ar   
    70   66   67 ar   
    71   67   69 ar   
    72   67   68 1    
    73   69   71 ar   
    74   69   70 1    
    75   71   72 1    
    76   71   73 ar   
    77   73   74 1    
    78   73   75 ar   
    79   75   76 1    
    80   77   80 1    
    81   77   79 1    
    82   77   78 1    
    83   77   81 1    
    84   81   82 1    
    85   81   86 2    
    86   82   83 1    
    87   82   85 1    
    88   82   84 1    
    89   87   89 1    
    90   87   90 1    
    91   87   88 1    
    92   87   91 1    
    93   91   92 1    
    94   91   96 2    
    95   92   93 1    
    96   92   94 1    
    97   92   95 1    
@<TRIPOS>SUBSTRUCTURE
     1 UNK         1 GROUP             0       ****    0 ROOT    
@<TRIPOS>MOLECULE
Cpd4-5000
96   97    1
SMALL
USER_CHARGES


@<TRIPOS>ATOM
      1 C1         -4.9077   -1.1743   -3.8179 C.3       1 UNK         0.0000 
      2 H2         -3.9034   -1.3397   -4.2085 H         1 UNK         0.0000 
      3 H3         -5.6010   -1.8461   -4.3321 H         1 UNK         0.0000 
      4 H4         -5.2101   -0.1437   -4.0270 H         1 UNK         0.0000 
      5 C5         -4.9749   -1.4458   -2.3181 C.3       1 UNK         0.0000 
      6 C6         -4.4444   -2.8259   -1.9455 C.3       1 UNK         0.0000 
      7 H7         -4.4897   -2.9699   -0.8604 H         1 UNK         0.0000 
      8 H8         -5.0694   -3.5926   -2.4139 H         1 UNK         0.0000 
      9 H9         -3.4123   -2.9625   -2.2766 H         1 UNK         0.0000 
     10 C10        -6.4015   -1.2723   -1.8098 C.3       1 UNK         0.0000 
     11 H11        -7.0597   -1.9862   -2.3119 H         1 UNK         0.0000 
     12 H12        -6.4509   -1.4546   -0.7320 H         1 UNK         0.0000 
     13 H13        -6.7599   -0.2589   -2.0116 H         1 UNK         0.0000 
     14 O14        -4.2403   -0.4156   -1.5811 O.3       1 UNK         0.0000 
     15 C15        -2.9191   -0.2305   -1.7740 C.2       1 UNK         0.0000 
     16 O16        -2.2211   -0.8813   -2.5444 O.2       1 UNK         0.0000 
     17 N17        -2.4672    0.7761   -0.9964 N.am      1 UNK         0.0000 
     18 H18        -3.1147    1.2022   -0.3213 H         1 UNK         0.0000 
     19 C19        -1.0624    1.1377   -0.9736 C.3       1 UNK         0.0000 
     20 C20        -0.3765    0.3275    0.1403 C.2       1 UNK         0.0000 
     21 N21         0.3123   -0.7649   -0.2723 N.am      1 UNK         0.0000 
     22 H22         0.2565   -1.0418   -1.2576 H         1 UNK         0.0000 
     23 O23        -0.5173    0.6495    1.3193 O.2       1 UNK         0.0000 
     24 H24        -0.6333    0.8676   -1.9435 H         1 UNK         0.0000 
     25 C25        -0.9177    2.6474   -0.7349 C.3       1 UNK         0.0000 
     26 H26        -1.3556    2.8946    0.2371 H         1 UNK         0.0000 
     27 H27        -1.4913    3.1616   -1.5126 H         1 UNK         0.0000 
     28 C28         0.5365    3.0430   -0.7825 C.ar      1 UNK         0.0000 
     29 C29         1.2127    3.0420   -2.0086 C.ar      1 UNK         0.0000 
     30 C30         2.5953    3.1781   -2.0605 C.ar      1 UNK         0.0000 
     31 H31         3.1300    3.1122   -3.0028 H         1 UNK         0.0000 
     32 H32         0.6563    2.8859   -2.9297 H         1 UNK         0.0000 
     33 C33         1.2625    3.2946    0.3841 C.ar      1 UNK         0.0000 
     34 H34         0.7463    3.3188    1.3395 H         1 UNK         0.0000 
     35 C35         2.6503    3.4410    0.3469 C.ar      1 UNK         0.0000 
     36 H36         3.2247    3.5782    1.2574 H         1 UNK         0.0000 
     37 C37         3.3060    3.3208   -0.8715 C.ar      1 UNK         0.0000 
     38 O38         4.7017    3.2004   -0.9019 O.3       1 UNK         0.0000 
     39 C39         4.9985    1.8470   -1.0359 C.ar      1 UNK         0.0000 
     40 C40         4.7734    0.9963    0.0462 C.ar      1 UNK         0.0000 
     41 C41         4.7975   -0.3758   -0.1551 C.ar      1 UNK         0.0000 
     42 H42         4.5561   -1.0389    0.6709 H         1 UNK         0.0000 
     43 H43         4.5054    1.4122    1.0115 H         1 UNK         0.0000 
     44 C44         5.3946    1.3522   -2.2756 C.ar      1 UNK         0.0000 
     45 H45         5.5890    2.0408   -3.0912 H         1 UNK         0.0000 
     46 C46         5.4404   -0.0267   -2.4636 C.ar      1 UNK         0.0000 
     47 H47         5.6838   -0.4399   -3.4375 H         1 UNK         0.0000 
     48 C48         5.0851   -0.8925   -1.4243 C.ar      1 UNK         0.0000 
     49 C49         4.9230   -2.3426   -1.7156 C.2       1 UNK         0.0000 
     50 O50         5.5165   -2.8876   -2.6302 O.2       1 UNK         0.0000 
     51 C51         3.9465   -3.1513   -0.8587 C.3       1 UNK         0.0000 
     52 H52         3.8163   -4.1169   -1.3540 H         1 UNK         0.0000 
     53 H53         4.3942   -3.3242    0.1256 H         1 UNK         0.0000 
     54 N54         2.6614   -2.5093   -0.6547 N.am      1 UNK         0.0000 
     55 H55         2.0248   -2.4343   -1.4529 H         1 UNK         0.0000 
     56 C56         2.1943   -2.2168    0.5790 C.2       1 UNK         0.0000 
     57 O57         2.8643   -2.3604    1.6036 O.2       1 UNK         0.0000 
     58 C58         0.7306   -1.7768    0.6883 C.3       1 UNK         0.0000 
     59 H59         0.6356   -1.3204    1.6746 H         1 UNK         0.0000 
     60 C60        -0.1598   -3.0337    0.6345 C.3       1 UNK         0.0000 
     61 H61         0.1048   -3.6673    1.4886 H         1 UNK         0.0000 
     62 H62         0.0624   -3.6127   -0.2711 H         1 UNK         0.0000 
     63 C63        -1.6534   -2.6888    0.6789 C.3       1 UNK         0.0000 
     64 H64        -1.8261   -1.9437    1.4650 H         1 UNK         0.0000 
     65 H65        -1.9367   -2.2250   -0.2771 H         1 UNK         0.0000 
     66 C66        -2.5216   -3.8987    0.9262 C.ar      1 UNK         0.0000 
     67 C67        -3.2881   -4.0072    2.0896 C.ar      1 UNK         0.0000 
     68 H68        -3.2499   -3.2109    2.8295 H         1 UNK         0.0000 
     69 C69        -4.1012   -5.1209    2.3120 C.ar      1 UNK         0.0000 
     70 H70        -4.6928   -5.1839    3.2203 H         1 UNK         0.0000 
     71 C71        -4.1515   -6.1476    1.3712 C.ar      1 UNK         0.0000 
     72 H72        -4.7831   -7.0141    1.5404 H         1 UNK         0.0000 
     73 C73        -3.3832   -6.0545    0.2081 C.ar      1 UNK         0.0000 
     74 H74        -3.4180   -6.8486   -0.5317 H         1 UNK         0.0000 
     75 C75        -2.5774   -4.9397   -0.0101 C.ar      1 UNK         0.0000 
     76 H76        -1.9989   -4.8648   -0.9285 H         1 UNK         0.0000 
     77 C77         0.4247   -4.7057   -3.4424 C.3       1 UNK         0.0000 
     78 H78        -0.2919   -5.4417   -3.8122 H         1 UNK         0.0000 
     79 H79         0.8899   -5.0688   -2.5241 H         1 UNK         0.0000 
     80 H80         1.1843   -4.4806   -4.1935 H         1 UNK         0.0000 
     81 S81        -0.4538   -3.1866   -3.0281 S.3       1 UNK         0.0000 
     82 C82        -1.0134   -2.7416   -4.6785 C.3       1 UNK         0.0000 
     83 H83        -1.4802   -1.7620   -4.5838 H         1 UNK         0.0000 
     84 H84        -1.7434   -3.4822   -5.0124 H         1 UNK         0.0000 
     85 H85        -0.1473   -2.7103   -5.3425 H         1 UNK         0.0000 
     86 O86         0.6718   -2.1777   -2.7085 O.2       1 UNK         0.0000 
     87 C87        -5.9983    1.2703    2.8786 C.3       1 UNK         0.0000 
     88 H88        -5.1270    1.3220    3.5345 H         1 UNK         0.0000 
     89 H89        -6.7189    0.5320    3.2356 H         1 UNK         0.0000 
     90 H90        -6.4745    2.2476    2.7968 H         1 UNK         0.0000 
     91 S91        -5.4505    0.8063    1.2238 S.3       1 UNK         0.0000 
     92 C92        -4.6235   -0.7375    1.6657 C.3       1 UNK         0.0000 
     93 H93        -3.8607   -0.5205    2.4179 H         1 UNK         0.0000 
     94 H94        -4.1682   -1.1255    0.7521 H         1 UNK         0.0000 
     95 H95        -5.3645   -1.4454    2.0450 H         1 UNK         0.0000 
     96 O96        -4.3191    1.7956    0.8960 O.2       1 UNK         0.0000 
@<TRIPOS>BOND
     1    1    2 1    
     2    1    4 1    
     3    1    3 1    
     4    1    5 1    
     5    5    6 1    
     6    5   10 1    
     7    5   14 1    
     8    6    9 1    
     9    6    8 1    
    10    6    7 1    
    11   10   13 1    
    12   10   11 1    
    13   10   12 1    
    14   14   15 1    
    15   15   16 2    
    16   15   17 am   BACKBONE|DICT|INTERRES
    17   17   18 1    
    18   17   19 1    
    19   19   24 1    
    20   19   20 1    
    21   19   25 1    
    22   20   21 am   BACKBONE|DICT|INTERRES
    23   20   23 2    
    24   21   22 1    
    25   21   58 1    
    26   25   27 1    
    27   25   26 1    
    28   25   28 1    
    29   28   29 ar   
    30   28   33 ar   
    31   29   32 1    
    32   29   30 ar   
    33   30   31 1    
    34   30   37 ar   
    35   33   34 1    
    36   33   35 ar   
    37   35   37 ar   
    38   35   36 1    
    39   37   38 1    
    40   38   39 1    
    41   39   44 ar   
    42   39   40 ar   
    43   40   41 ar   
    44   40   43 1    
    45   41   48 ar   
    46   41   42 1    
    47   44   45 1    
    48   44   46 ar   
    49   46   47 1    
    50   46   48 ar   
    51   48   49 1    
    52   49   50 2    
    53   49   51 1    
    54   51   54 1    
    55   51   52 1    
    56   51   53 1    
    57   54   55 1    
    58   54   56 am   BACKBONE|DICT|INTERRES
    59   56   58 1    
    60   56   57 2    
    61   58   59 1    
    62   58   60 1    
    63   60   63 1    
    64   60   62 1    
    65   60   61 1    
    66   63   65 1    
    67   63   64 1    
    68   63   66 1    
    69   66   75 ar   
    70   66   67 ar   
    71   67   68 1    
    72   67   69 ar   
    73   69   71 ar   
    74   69   70 1    
    75   71   73 ar   
    76   71   72 1    
    77   73   75 ar   
    78   73   74 1    
    79   75   76 1    
    80   77   78 1    
    81   77   80 1    
    82   77   79 1    
    83   77   81 1    
    84   81   82 1    
    85   81   86 2    
    86   82   83 1    
    87   82   84 1    
    88   82   85 1    
    89   87   90 1    
    90   87   91 1    
    91   87   88 1    
    92   87   89 1    
    93   91   96 2    
    94   91   92 1    
    95   92   94 1    
    96   92   93 1    
    97   92   95 1    
@<TRIPOS>SUBSTRUCTURE
     1 UNK         1 GROUP             0       ****    0 ROOT    
