@<TRIPOS>MOLECULE
Cpd4-1
76   79    1
SMALL
USER_CHARGES


@<TRIPOS>ATOM
      1 N1         -4.0513   17.8704  -23.8176 N.am      1 UNK         0.0000 
      2 O2         -3.9060   19.5935  -20.8814 O.2       1 UNK         0.0000 
      3 C3         -2.5607   12.0632  -18.5825 C.ar      1 UNK         0.0000 
      4 N4         -3.7003   15.4221  -25.1208 N.am      1 UNK         0.0000 
      5 O5         -3.9011   13.2126  -25.6012 O.2       1 UNK         0.0000 
      6 C6         -3.4809   11.5131  -19.4726 C.ar      1 UNK         0.0000 
      7 N7         -1.8748   15.7946  -27.1696 N.am      1 UNK         0.0000 
      8 O8         -5.9269   17.0529  -22.8295 O.2       1 UNK         0.0000 
      9 C9         -2.2923   13.4304  -18.5925 C.ar      1 UNK         0.0000 
     10 O10        -0.8274   15.4107  -29.2267 O.2       1 UNK         0.0000 
     11 C11        -4.1385   12.3375  -20.3819 C.ar      1 UNK         0.0000 
     12 O12         1.2428   15.9951  -22.2567 O.3       1 UNK         0.0000 
     13 C13        -2.9507   14.2550  -19.5007 C.ar      1 UNK         0.0000 
     14 C14         0.7956   14.7479  -25.6553 C.ar      1 UNK         0.0000 
     15 C15        -0.6531   13.5231  -24.1526 C.ar      1 UNK         0.0000 
     16 C16        -1.0957   18.7234  -22.9455 C.ar      1 UNK         0.0000 
     17 C17        -1.6513   17.7109  -20.8185 C.ar      1 UNK         0.0000 
     18 C18         1.3951   15.3748  -24.5675 C.ar      1 UNK         0.0000 
     19 C19        -0.0607   14.1547  -23.0652 C.ar      1 UNK         0.0000 
     20 C20         0.0449   17.9358  -23.0212 C.ar      1 UNK         0.0000 
     21 C21        -0.5164   16.9063  -20.9051 C.ar      1 UNK         0.0000 
     22 C22        -1.1312   13.4202  -26.6376 C.3       1 UNK         0.0000 
     23 C23        -4.0766   19.2271  -23.2494 C.3       1 UNK         0.0000 
     24 C24        -4.5785   14.6076  -21.4040 C.3       1 UNK         0.0000 
     25 C25        -3.8121   14.6964  -22.7398 C.3       1 UNK         0.0000 
     26 C26        -0.2827   13.8824  -25.4507 C.ar      1 UNK         0.0000 
     27 C27        -3.8740   13.7098  -20.3968 C.ar      1 UNK         0.0000 
     28 C28        -1.9872   18.5586  -21.8807 C.ar      1 UNK         0.0000 
     29 C29         0.9090   15.1375  -23.2802 C.ar      1 UNK         0.0000 
     30 C30         0.2949   16.9718  -22.0391 C.ar      1 UNK         0.0000 
     31 C31        -3.3083   19.2571  -21.9043 C.2       1 UNK         0.0000 
     32 C32        -3.3910   14.3115  -25.8251 C.2       1 UNK         0.0000 
     33 C33        -4.8969   16.8779  -23.4810 C.2       1 UNK         0.0000 
     34 C34        -1.1262   16.1472  -28.2846 C.2       1 UNK         0.0000 
     35 C35        -2.3187   14.4042  -26.9497 C.3       1 UNK         0.0000 
     36 C36        -4.5206   15.4425  -23.9038 C.3       1 UNK         0.0000 
     37 H37        -2.8168   14.0702  -27.8627 H         1 UNK         0.0000 
     38 H38        -5.4554   14.9257  -24.1285 H         1 UNK         0.0000 
     39 H39        -2.0498   11.4234  -17.8781 H         1 UNK         0.0000 
     40 H40        -3.6817   10.4520  -19.4586 H         1 UNK         0.0000 
     41 H41        -1.5771   13.8489  -17.8999 H         1 UNK         0.0000 
     42 H42        -4.8479   11.9096  -21.0755 H         1 UNK         0.0000 
     43 H43        -2.7410   15.3138  -19.5080 H         1 UNK         0.0000 
     44 H44         1.1058   15.0118  -26.6560 H         1 UNK         0.0000 
     45 H45        -1.4685   12.8345  -23.9856 H         1 UNK         0.0000 
     46 H46        -1.3103   19.4051  -23.7562 H         1 UNK         0.0000 
     47 H47        -2.3115   17.5975  -19.9703 H         1 UNK         0.0000 
     48 H48         2.1521   16.1271  -24.7344 H         1 UNK         0.0000 
     49 H49        -0.4319   13.9625  -22.0688 H         1 UNK         0.0000 
     50 H50         0.6810   18.0105  -23.8907 H         1 UNK         0.0000 
     51 H51        -0.3187   16.1732  -20.1368 H         1 UNK         0.0000 
     52 H52        -0.4860   13.3263  -27.5122 H         1 UNK         0.0000 
     53 H53        -1.4929   12.4062  -26.4567 H         1 UNK         0.0000 
     54 H54        -5.1002   19.5856  -23.1194 H         1 UNK         0.0000 
     55 H55        -3.6128   19.9168  -23.9545 H         1 UNK         0.0000 
     56 H56        -4.7025   15.5963  -20.9599 H         1 UNK         0.0000 
     57 H57        -5.5908   14.2370  -21.5731 H         1 UNK         0.0000 
     58 H58        -2.8321   15.1414  -22.5589 H         1 UNK         0.0000 
     59 H59        -3.5936   13.6757  -23.0535 H         1 UNK         0.0000 
     60 H60        -3.2546   17.6489  -24.3974 H         1 UNK         0.0000 
     61 H61        -3.2653   16.2990  -25.3685 H         1 UNK         0.0000 
     62 H62        -1.9692   16.4534  -26.4102 H         1 UNK         0.0000 
     63 O63        -0.7492   17.4477  -28.1516 O.3       1 UNK         0.0000 
     64 C64         0.1267   18.1606  -29.0450 C.3       1 UNK         0.0000 
     65 C65        -0.4811   18.2713  -30.4658 C.3       1 UNK         0.0000 
     66 H66         0.1130   18.9294  -31.1012 H         1 UNK         0.0000 
     67 H67        -0.5368   17.3063  -30.9689 H         1 UNK         0.0000 
     68 H68        -1.4934   18.6760  -30.4321 H         1 UNK         0.0000 
     69 C69         0.2395   19.5691  -28.4252 C.3       1 UNK         0.0000 
     70 H70        -0.7349   20.0557  -28.3577 H         1 UNK         0.0000 
     71 H71         0.6475   19.5297  -27.4139 H         1 UNK         0.0000 
     72 H72         0.8888   20.2173  -29.0152 H         1 UNK         0.0000 
     73 C73         1.5317   17.5082  -29.0902 C.3       1 UNK         0.0000 
     74 H74         1.9412   17.3813  -28.0871 H         1 UNK         0.0000 
     75 H75         1.5151   16.5234  -29.5568 H         1 UNK         0.0000 
     76 H76         2.2357   18.1195  -29.6564 H         1 UNK         0.0000 
@<TRIPOS>BOND
     1    1   60 1    
     2    1   23 1    
     3    1   33 am   BACKBONE|DICT|INTERRES
     4    2   31 2    
     5    3    9 ar   
     6    3   39 1    
     7    3    6 ar   
     8    4   61 1    
     9    4   32 am   BACKBONE|DICT|INTERRES
    10    4   36 1    
    11    5   32 2    
    12    6   11 ar   
    13    6   40 1    
    14    7   34 am   BACKBONE|DICT|INTERRES
    15    7   62 1    
    16    7   35 1    
    17    8   33 2    
    18    9   41 1    
    19    9   13 ar   
    20   10   34 2    
    21   11   27 ar   
    22   11   42 1    
    23   12   29 1    
    24   12   30 1    
    25   13   43 1    
    26   13   27 ar   
    27   14   18 ar   
    28   14   26 ar   
    29   14   44 1    
    30   15   19 ar   
    31   15   26 ar   
    32   15   45 1    
    33   16   20 ar   
    34   16   28 ar   
    35   16   46 1    
    36   17   21 ar   
    37   17   28 ar   
    38   17   47 1    
    39   18   29 ar   
    40   18   48 1    
    41   19   49 1    
    42   19   29 ar   
    43   20   50 1    
    44   20   30 ar   
    45   21   30 ar   
    46   21   51 1    
    47   22   52 1    
    48   22   26 1    
    49   22   35 1    
    50   22   53 1    
    51   23   55 1    
    52   23   31 1    
    53   23   54 1    
    54   24   56 1    
    55   24   27 1    
    56   24   25 1    
    57   24   57 1    
    58   25   58 1    
    59   25   36 1    
    60   25   59 1    
    61   28   31 1    
    62   32   35 1    
    63   33   36 1    
    64   34   63 1    
    65   35   37 1    
    66   36   38 1    
    67   63   64 1    
    68   64   69 1    
    69   64   73 1    
    70   64   65 1    
    71   65   66 1    
    72   65   67 1    
    73   65   68 1    
    74   69   72 1    
    75   69   71 1    
    76   69   70 1    
    77   73   76 1    
    78   73   74 1    
    79   73   75 1    
@<TRIPOS>SUBSTRUCTURE
     1 UNK         1 GROUP             0       ****    0 ROOT    
@<TRIPOS>MOLECULE
Cpd4-2-MRC
76   79    1
SMALL
USER_CHARGES


@<TRIPOS>ATOM
      1 N1         -4.6721   17.7987  -22.8735 N.am      1 UNK         0.0000 
      2 O2         -3.7295   19.7738  -20.3155 O.2       1 UNK         0.0000 
      3 C3         -2.5910   13.9405  -18.0009 C.ar      1 UNK         0.0000 
      4 N4         -3.5721   15.2868  -25.2993 N.am      1 UNK         0.0000 
      5 O5         -3.9930   13.0513  -25.2966 O.2       1 UNK         0.0000 
      6 C6         -3.0542   15.2383  -18.2078 C.ar      1 UNK         0.0000 
      7 N7         -1.9335   15.0518  -27.5715 N.am      1 UNK         0.0000 
      8 O8         -4.0670   17.8931  -25.0583 O.2       1 UNK         0.0000 
      9 C9         -2.8108   12.9471  -18.9530 C.ar      1 UNK         0.0000 
     10 O10        -3.7652   15.2707  -29.0130 O.2       1 UNK         0.0000 
     11 C11        -3.7430   15.5457  -19.3779 C.ar      1 UNK         0.0000 
     12 O12         1.1361   16.1510  -22.4629 O.3       1 UNK         0.0000 
     13 C13        -3.4986   13.2543  -20.1240 C.ar      1 UNK         0.0000 
     14 C14         0.6201   14.5619  -25.7151 C.ar      1 UNK         0.0000 
     15 C15        -0.6469   13.3716  -24.0306 C.ar      1 UNK         0.0000 
     16 C16        -1.5173   18.6500  -22.9181 C.ar      1 UNK         0.0000 
     17 C17        -1.4953   17.9100  -20.6162 C.ar      1 UNK         0.0000 
     18 C18         1.1908   15.3564  -24.7247 C.ar      1 UNK         0.0000 
     19 C19        -0.0854   14.1716  -23.0419 C.ar      1 UNK         0.0000 
     20 C20        -0.3938   17.8756  -23.1761 C.ar      1 UNK         0.0000 
     21 C21        -0.3726   17.1265  -20.8778 C.ar      1 UNK         0.0000 
     22 C22        -1.1733   12.9299  -26.4663 C.3       1 UNK         0.0000 
     23 C23        -4.4979   19.2111  -22.5129 C.3       1 UNK         0.0000 
     24 C24        -4.6917   14.8989  -21.6287 C.3       1 UNK         0.0000 
     25 C25        -3.7201   15.0666  -22.8166 C.3       1 UNK         0.0000 
     26 C26        -0.3485   13.6138  -25.3739 C.ar      1 UNK         0.0000 
     27 C27        -3.9638   14.5547  -20.3380 C.ar      1 UNK         0.0000 
     28 C28        -2.1154   18.6168  -21.6545 C.ar      1 UNK         0.0000 
     29 C29         0.7859   15.2039  -23.3975 C.ar      1 UNK         0.0000 
     30 C30         0.1472   17.0663  -22.1711 C.ar      1 UNK         0.0000 
     31 C31        -3.4098   19.3297  -21.4189 C.2       1 UNK         0.0000 
     32 C32        -3.4090   14.0310  -25.7614 C.2       1 UNK         0.0000 
     33 C33        -4.3598   17.2367  -24.0562 C.2       1 UNK         0.0000 
     34 C34        -2.6909   15.6708  -28.5594 C.2       1 UNK         0.0000 
     35 C35        -2.3840   13.8101  -26.9111 C.3       1 UNK         0.0000 
     36 C36        -4.3306   15.6865  -24.1093 C.3       1 UNK         0.0000 
     37 H37        -2.9052   13.2144  -27.6647 H         1 UNK         0.0000 
     38 H38        -5.3524   15.3267  -24.2399 H         1 UNK         0.0000 
     39 H39        -2.0558   13.7025  -17.0936 H         1 UNK         0.0000 
     40 H40        -2.8777   16.0030  -17.4659 H         1 UNK         0.0000 
     41 H41        -2.4470   11.9442  -18.7849 H         1 UNK         0.0000 
     42 H42        -4.0957   16.5541  -19.5402 H         1 UNK         0.0000 
     43 H43        -3.6631   12.4859  -20.8656 H         1 UNK         0.0000 
     44 H44         0.8673   14.7437  -26.7510 H         1 UNK         0.0000 
     45 H45        -1.3843   12.6307  -23.7577 H         1 UNK         0.0000 
     46 H46        -1.9464   19.2265  -23.7250 H         1 UNK         0.0000 
     47 H47        -1.9174   17.9017  -19.6213 H         1 UNK         0.0000 
     48 H48         1.8713   16.1493  -24.9984 H         1 UNK         0.0000 
     49 H49        -0.3940   14.0480  -22.0139 H         1 UNK         0.0000 
     50 H50         0.0177   17.8594  -24.1745 H         1 UNK         0.0000 
     51 H51         0.0523   16.5188  -20.0923 H         1 UNK         0.0000 
     52 H52        -0.5294   12.7116  -27.3201 H         1 UNK         0.0000 
     53 H53        -1.5169   11.9574  -26.1083 H         1 UNK         0.0000 
     54 H54        -5.4506   19.6039  -22.1548 H         1 UNK         0.0000 
     55 H55        -4.2187   19.8343  -23.3642 H         1 UNK         0.0000 
     56 H56        -5.3077   15.7822  -21.4673 H         1 UNK         0.0000 
     57 H57        -5.4064   14.1056  -21.8529 H         1 UNK         0.0000 
     58 H58        -2.8638   15.6692  -22.5071 H         1 UNK         0.0000 
     59 H59        -3.2847   14.0874  -23.0100 H         1 UNK         0.0000 
     60 H60        -4.9660   17.1907  -22.1225 H         1 UNK         0.0000 
     61 H61        -3.0649   16.0347  -25.7506 H         1 UNK         0.0000 
     62 H62        -1.0861   15.4923  -27.2432 H         1 UNK         0.0000 
     63 O63        -2.0618   16.8203  -28.9261 O.3       1 UNK         0.0000 
     64 C64        -2.5793   17.7991  -29.8474 C.3       1 UNK         0.0000 
     65 C65        -3.9080   18.4074  -29.3309 C.3       1 UNK         0.0000 
     66 H66        -4.2302   19.2440  -29.9523 H         1 UNK         0.0000 
     67 H67        -4.7205   17.6809  -29.3255 H         1 UNK         0.0000 
     68 H68        -3.8027   18.7789  -28.3106 H         1 UNK         0.0000 
     69 C69        -1.4976   18.8988  -29.8853 C.3       1 UNK         0.0000 
     70 H70        -1.3322   19.3314  -28.8972 H         1 UNK         0.0000 
     71 H71        -0.5387   18.5053  -30.2264 H         1 UNK         0.0000 
     72 H72        -1.7748   19.7127  -30.5565 H         1 UNK         0.0000 
     73 C73        -2.7553   17.2035  -31.2667 C.3       1 UNK         0.0000 
     74 H74        -1.8380   16.7238  -31.6107 H         1 UNK         0.0000 
     75 H75        -3.5450   16.4535  -31.3063 H         1 UNK         0.0000 
     76 H76        -3.0118   17.9763  -31.9924 H         1 UNK         0.0000 
@<TRIPOS>BOND
     1    1   23 1    
     2    1   33 am   BACKBONE|DICT|INTERRES
     3    1   60 1    
     4    2   31 2    
     5    3   39 1    
     6    3    6 ar   
     7    3    9 ar   
     8    4   61 1    
     9    4   32 am   BACKBONE|DICT|INTERRES
    10    4   36 1    
    11    5   32 2    
    12    6   40 1    
    13    6   11 ar   
    14    7   62 1    
    15    7   34 am   BACKBONE|DICT|INTERRES
    16    7   35 1    
    17    8   33 2    
    18    9   41 1    
    19    9   13 ar   
    20   10   34 2    
    21   11   27 ar   
    22   11   42 1    
    23   12   29 1    
    24   12   30 1    
    25   13   27 ar   
    26   13   43 1    
    27   14   18 ar   
    28   14   26 ar   
    29   14   44 1    
    30   15   19 ar   
    31   15   26 ar   
    32   15   45 1    
    33   16   20 ar   
    34   16   28 ar   
    35   16   46 1    
    36   17   21 ar   
    37   17   28 ar   
    38   17   47 1    
    39   18   29 ar   
    40   18   48 1    
    41   19   49 1    
    42   19   29 ar   
    43   20   30 ar   
    44   20   50 1    
    45   21   51 1    
    46   21   30 ar   
    47   22   52 1    
    48   22   26 1    
    49   22   35 1    
    50   22   53 1    
    51   23   55 1    
    52   23   31 1    
    53   23   54 1    
    54   24   25 1    
    55   24   27 1    
    56   24   56 1    
    57   24   57 1    
    58   25   59 1    
    59   25   58 1    
    60   25   36 1    
    61   28   31 1    
    62   32   35 1    
    63   33   36 1    
    64   34   63 1    
    65   35   37 1    
    66   36   38 1    
    67   63   64 1    
    68   64   69 1    
    69   64   65 1    
    70   64   73 1    
    71   65   68 1    
    72   65   66 1    
    73   65   67 1    
    74   69   71 1    
    75   69   70 1    
    76   69   72 1    
    77   73   74 1    
    78   73   75 1    
    79   73   76 1    
@<TRIPOS>SUBSTRUCTURE
     1 UNK         1 GROUP             0       ****    0 ROOT    
@<TRIPOS>MOLECULE
Cpd4-3
76   79    1
SMALL
USER_CHARGES


@<TRIPOS>ATOM
      1 N1         -4.6807   17.8315  -22.9587 N.am      1 UNK         0.0000 
      2 O2         -3.8020   19.7186  -20.3199 O.2       1 UNK         0.0000 
      3 C3         -3.2190   12.2036  -18.6382 C.ar      1 UNK         0.0000 
      4 N4         -3.5330   15.2585  -25.3334 N.am      1 UNK         0.0000 
      5 O5         -4.0740   13.0495  -25.3520 O.2       1 UNK         0.0000 
      6 C6         -4.1923   11.8502  -19.5705 C.ar      1 UNK         0.0000 
      7 N7         -2.0112   14.9731  -27.6338 N.am      1 UNK         0.0000 
      8 O8         -3.6204   17.8740  -24.9619 O.2       1 UNK         0.0000 
      9 C9         -2.6626   13.4809  -18.6416 C.ar      1 UNK         0.0000 
     10 O10        -1.1143   13.9475  -29.5366 O.2       1 UNK         0.0000 
     11 C11        -4.6133   12.7829  -20.5150 C.ar      1 UNK         0.0000 
     12 O12         1.1163   16.1700  -22.4657 O.3       1 UNK         0.0000 
     13 C13        -3.0841   14.4137  -19.5854 C.ar      1 UNK         0.0000 
     14 C14         0.5213   14.5913  -25.7135 C.ar      1 UNK         0.0000 
     15 C15        -0.6804   13.3767  -24.0001 C.ar      1 UNK         0.0000 
     16 C16        -1.4451   18.7670  -22.8459 C.ar      1 UNK         0.0000 
     17 C17        -1.5974   17.8087  -20.6310 C.ar      1 UNK         0.0000 
     18 C18         1.0981   15.3988  -24.7372 C.ar      1 UNK         0.0000 
     19 C19        -0.1052   14.1833  -23.0243 C.ar      1 UNK         0.0000 
     20 C20        -0.3187   17.9948  -23.1024 C.ar      1 UNK         0.0000 
     21 C21        -0.4698   17.0317  -20.8895 C.ar      1 UNK         0.0000 
     22 C22        -1.2261   12.8848  -26.4238 C.3       1 UNK         0.0000 
     23 C23        -4.4820   19.2344  -22.5660 C.3       1 UNK         0.0000 
     24 C24        -4.5104   15.0786  -21.5677 C.3       1 UNK         0.0000 
     25 C25        -3.6519   15.0187  -22.8500 C.3       1 UNK         0.0000 
     26 C26        -0.4165   13.6199  -25.3505 C.ar      1 UNK         0.0000 
     27 C27        -4.0602   14.0664  -20.5231 C.ar      1 UNK         0.0000 
     28 C28        -2.1345   18.6189  -21.6383 C.ar      1 UNK         0.0000 
     29 C29         0.7382   15.2320  -23.3987 C.ar      1 UNK         0.0000 
     30 C30         0.1358   17.0825  -22.1456 C.ar      1 UNK         0.0000 
     31 C31        -3.4367   19.3219  -21.4272 C.2       1 UNK         0.0000 
     32 C32        -3.4375   13.9997  -25.8092 C.2       1 UNK         0.0000 
     33 C33        -4.1654   17.2424  -24.0536 C.2       1 UNK         0.0000 
     34 C34        -1.3500   14.9475  -28.8553 C.2       1 UNK         0.0000 
     35 C35        -2.4356   13.7268  -26.9676 C.3       1 UNK         0.0000 
     36 C36        -4.2423   15.6966  -24.1241 C.3       1 UNK         0.0000 
     37 H37        -2.9760   13.1298  -27.7061 H         1 UNK         0.0000 
     38 H38        -5.2893   15.4111  -24.2373 H         1 UNK         0.0000 
     39 H39        -2.8919   11.4798  -17.9063 H         1 UNK         0.0000 
     40 H40        -4.6170   10.8573  -19.5619 H         1 UNK         0.0000 
     41 H41        -1.9077   13.7465  -17.9163 H         1 UNK         0.0000 
     42 H42        -5.3642   12.5061  -21.2410 H         1 UNK         0.0000 
     43 H43        -2.6502   15.4015  -19.5872 H         1 UNK         0.0000 
     44 H44         0.7493   14.7722  -26.7537 H         1 UNK         0.0000 
     45 H45        -1.3925   12.6183  -23.7087 H         1 UNK         0.0000 
     46 H46        -1.8103   19.4281  -23.6188 H         1 UNK         0.0000 
     47 H47        -2.0913   17.7137  -19.6743 H         1 UNK         0.0000 
     48 H48         1.7590   16.2026  -25.0269 H         1 UNK         0.0000 
     49 H49        -0.3790   14.0474  -21.9880 H         1 UNK         0.0000 
     50 H50         0.1609   18.0591  -24.0679 H         1 UNK         0.0000 
     51 H51        -0.1103   16.3413  -20.1405 H         1 UNK         0.0000 
     52 H52        -0.5548   12.6054  -27.2370 H         1 UNK         0.0000 
     53 H53        -1.5808   11.9337  -26.0217 H         1 UNK         0.0000 
     54 H54        -5.4380   19.6480  -22.2423 H         1 UNK         0.0000 
     55 H55        -4.1619   19.8625  -23.3993 H         1 UNK         0.0000 
     56 H56        -4.4779   16.0691  -21.1149 H         1 UNK         0.0000 
     57 H57        -5.5608   14.9035  -21.8061 H         1 UNK         0.0000 
     58 H58        -2.6558   15.4099  -22.6392 H         1 UNK         0.0000 
     59 H59        -3.4873   13.9626  -23.0586 H         1 UNK         0.0000 
     60 H60        -5.1641   17.2524  -22.2871 H         1 UNK         0.0000 
     61 H61        -2.9900   15.9804  -25.7851 H         1 UNK         0.0000 
     62 H62        -2.0622   15.8383  -27.1155 H         1 UNK         0.0000 
     63 O63        -0.9855   16.2194  -29.1733 O.3       1 UNK         0.0000 
     64 C64        -0.2215   16.6055  -30.3319 C.3       1 UNK         0.0000 
     65 C65        -0.9738   16.2695  -31.6439 C.3       1 UNK         0.0000 
     66 H66        -0.4622   16.6860  -32.5126 H         1 UNK         0.0000 
     67 H67        -1.0603   15.1957  -31.8086 H         1 UNK         0.0000 
     68 H68        -1.9859   16.6764  -31.6348 H         1 UNK         0.0000 
     69 C69        -0.0786   18.1364  -30.2032 C.3       1 UNK         0.0000 
     70 H70        -1.0519   18.6294  -30.1900 H         1 UNK         0.0000 
     71 H71         0.4330   18.4144  -29.2802 H         1 UNK         0.0000 
     72 H72         0.4907   18.5584  -31.0326 H         1 UNK         0.0000 
     73 C73         1.1863   15.9576  -30.3173 C.3       1 UNK         0.0000 
     74 H74         1.6983   16.1461  -29.3727 H         1 UNK         0.0000 
     75 H75         1.1452   14.8766  -30.4501 H         1 UNK         0.0000 
     76 H76         1.8148   16.3549  -31.1153 H         1 UNK         0.0000 
@<TRIPOS>BOND
     1    1   23 1    
     2    1   33 am   BACKBONE|DICT|INTERRES
     3    1   60 1    
     4    2   31 2    
     5    3   39 1    
     6    3    9 ar   
     7    3    6 ar   
     8    4   36 1    
     9    4   61 1    
    10    4   32 am   BACKBONE|DICT|INTERRES
    11    5   32 2    
    12    6   11 ar   
    13    6   40 1    
    14    7   62 1    
    15    7   34 am   BACKBONE|DICT|INTERRES
    16    7   35 1    
    17    8   33 2    
    18    9   41 1    
    19    9   13 ar   
    20   10   34 2    
    21   11   27 ar   
    22   11   42 1    
    23   12   29 1    
    24   12   30 1    
    25   13   43 1    
    26   13   27 ar   
    27   14   18 ar   
    28   14   26 ar   
    29   14   44 1    
    30   15   19 ar   
    31   15   26 ar   
    32   15   45 1    
    33   16   20 ar   
    34   16   28 ar   
    35   16   46 1    
    36   17   47 1    
    37   17   21 ar   
    38   17   28 ar   
    39   18   29 ar   
    40   18   48 1    
    41   19   49 1    
    42   19   29 ar   
    43   20   30 ar   
    44   20   50 1    
    45   21   51 1    
    46   21   30 ar   
    47   22   52 1    
    48   22   26 1    
    49   22   35 1    
    50   22   53 1    
    51   23   31 1    
    52   23   54 1    
    53   23   55 1    
    54   24   25 1    
    55   24   56 1    
    56   24   27 1    
    57   24   57 1    
    58   25   58 1    
    59   25   36 1    
    60   25   59 1    
    61   28   31 1    
    62   32   35 1    
    63   33   36 1    
    64   34   63 1    
    65   35   37 1    
    66   36   38 1    
    67   63   64 1    
    68   64   69 1    
    69   64   73 1    
    70   64   65 1    
    71   65   66 1    
    72   65   67 1    
    73   65   68 1    
    74   69   72 1    
    75   69   71 1    
    76   69   70 1    
    77   73   76 1    
    78   73   74 1    
    79   73   75 1    
@<TRIPOS>SUBSTRUCTURE
     1 UNK         1 GROUP             0       ****    0 ROOT    
@<TRIPOS>MOLECULE
Cpd4-4
76   79    1
SMALL
USER_CHARGES


@<TRIPOS>ATOM
      1 N1         -4.6690   17.7922  -22.8617 N.am      1 UNK         0.0000 
      2 O2         -3.7195   19.7873  -20.3199 O.2       1 UNK         0.0000 
      3 C3         -2.5753   13.9122  -18.0031 C.ar      1 UNK         0.0000 
      4 N4         -3.5644   15.2910  -25.2879 N.am      1 UNK         0.0000 
      5 O5         -3.9787   13.0550  -25.2909 O.2       1 UNK         0.0000 
      6 C6         -2.8119   12.9215  -18.9540 C.ar      1 UNK         0.0000 
      7 N7         -1.9193   15.0663  -27.5723 N.am      1 UNK         0.0000 
      8 O8         -4.1323   17.8877  -25.0644 O.2       1 UNK         0.0000 
      9 C9         -3.0250   15.2151  -18.2070 C.ar      1 UNK         0.0000 
     10 O10        -2.2723   16.8242  -29.0375 O.2       1 UNK         0.0000 
     11 C11        -3.5034   13.2367  -20.1208 C.ar      1 UNK         0.0000 
     12 O12         1.1370   16.1478  -22.4627 O.3       1 UNK         0.0000 
     13 C13        -3.7172   15.5306  -19.3729 C.ar      1 UNK         0.0000 
     14 C14         0.6287   14.5590  -25.7159 C.ar      1 UNK         0.0000 
     15 C15        -0.6440   13.3702  -24.0346 C.ar      1 UNK         0.0000 
     16 C16        -1.5245   18.6377  -22.9266 C.ar      1 UNK         0.0000 
     17 C17        -1.4854   17.9223  -20.6172 C.ar      1 UNK         0.0000 
     18 C18         1.1994   15.3513  -24.7237 C.ar      1 UNK         0.0000 
     19 C19        -0.0830   14.1683  -23.0443 C.ar      1 UNK         0.0000 
     20 C20        -0.4020   17.8619  -23.1842 C.ar      1 UNK         0.0000 
     21 C21        -0.3637   17.1372  -20.8783 C.ar      1 UNK         0.0000 
     22 C22        -1.1723   12.9367  -26.4718 C.3       1 UNK         0.0000 
     23 C23        -4.5004   19.2068  -22.5082 C.3       1 UNK         0.0000 
     24 C24        -4.6865   14.8951  -21.6182 C.3       1 UNK         0.0000 
     25 C25        -3.7171   15.0680  -22.8069 C.3       1 UNK         0.0000 
     26 C26        -0.3438   13.6139  -25.3773 C.ar      1 UNK         0.0000 
     27 C27        -3.9552   14.5423  -20.3317 C.ar      1 UNK         0.0000 
     28 C28        -2.1131   18.6182  -21.6582 C.ar      1 UNK         0.0000 
     29 C29         0.7904   15.1998  -23.3976 C.ar      1 UNK         0.0000 
     30 C30         0.1474   17.0639  -22.1744 C.ar      1 UNK         0.0000 
     31 C31        -3.4062   19.3336  -21.4212 C.2       1 UNK         0.0000 
     32 C32        -3.3977   14.0374  -25.7537 C.2       1 UNK         0.0000 
     33 C33        -4.3837   17.2310  -24.0514 C.2       1 UNK         0.0000 
     34 C34        -2.6783   15.8013  -28.4874 C.2       1 UNK         0.0000 
     35 C35        -2.3810   13.8224  -26.9130 C.3       1 UNK         0.0000 
     36 C36        -4.3315   15.6816  -24.1008 C.3       1 UNK         0.0000 
     37 H37        -2.9053   13.2339  -27.6692 H         1 UNK         0.0000 
     38 H38        -5.3480   15.3086  -24.2342 H         1 UNK         0.0000 
     39 H39        -2.0374   13.6678  -17.0991 H         1 UNK         0.0000 
     40 H40        -2.4584   11.9146  -18.7882 H         1 UNK         0.0000 
     41 H41        -2.8355   15.9776  -17.4660 H         1 UNK         0.0000 
     42 H42        -3.6806   12.4704  -20.8616 H         1 UNK         0.0000 
     43 H43        -4.0597   16.5429  -19.5331 H         1 UNK         0.0000 
     44 H44         0.8779   14.7417  -26.7511 H         1 UNK         0.0000 
     45 H45        -1.3839   12.6311  -23.7636 H         1 UNK         0.0000 
     46 H46        -1.9600   19.2049  -23.7367 H         1 UNK         0.0000 
     47 H47        -1.9007   17.9237  -19.6193 H         1 UNK         0.0000 
     48 H48         1.8817   16.1432  -24.9956 H         1 UNK         0.0000 
     49 H49        -0.3945   14.0453  -22.0170 H         1 UNK         0.0000 
     50 H50         0.0024   17.8363  -24.1852 H         1 UNK         0.0000 
     51 H51         0.0675   16.5384  -20.0895 H         1 UNK         0.0000 
     52 H52        -0.5297   12.7197  -27.3268 H         1 UNK         0.0000 
     53 H53        -1.5178   11.9636  -26.1172 H         1 UNK         0.0000 
     54 H54        -5.4529   19.5962  -22.1459 H         1 UNK         0.0000 
     55 H55        -4.2278   19.8276  -23.3634 H         1 UNK         0.0000 
     56 H56        -5.3002   15.7786  -21.4496 H         1 UNK         0.0000 
     57 H57        -5.4033   14.1045  -21.8452 H         1 UNK         0.0000 
     58 H58        -2.8637   15.6753  -22.4987 H         1 UNK         0.0000 
     59 H59        -3.2765   14.0911  -22.9999 H         1 UNK         0.0000 
     60 H60        -4.9329   17.1824  -22.1011 H         1 UNK         0.0000 
     61 H61        -3.0606   16.0429  -25.7364 H         1 UNK         0.0000 
     62 H62        -1.0007   15.4053  -27.3244 H         1 UNK         0.0000 
     63 O63        -3.9298   15.2711  -28.6599 O.3       1 UNK         0.0000 
     64 C64        -5.0112   15.8894  -29.3798 C.3       1 UNK         0.0000 
     65 C65        -5.3974   17.2489  -28.7441 C.3       1 UNK         0.0000 
     66 H66        -6.3009   17.6579  -29.1980 H         1 UNK         0.0000 
     67 H67        -5.5857   17.1456  -27.6744 H         1 UNK         0.0000 
     68 H68        -4.6129   17.9967  -28.8604 H         1 UNK         0.0000 
     69 C69        -4.6732   16.0506  -30.8826 C.3       1 UNK         0.0000 
     70 H70        -3.8815   16.7797  -31.0537 H         1 UNK         0.0000 
     71 H71        -4.3413   15.1065  -31.3164 H         1 UNK         0.0000 
     72 H72        -5.5425   16.3836  -31.4509 H         1 UNK         0.0000 
     73 C73        -6.1855   14.9018  -29.2195 C.3       1 UNK         0.0000 
     74 H74        -5.9445   13.9226  -29.6363 H         1 UNK         0.0000 
     75 H75        -6.4379   14.7482  -28.1689 H         1 UNK         0.0000 
     76 H76        -7.0842   15.2602  -29.7234 H         1 UNK         0.0000 
@<TRIPOS>BOND
     1    1   23 1    
     2    1   33 am   BACKBONE|DICT|INTERRES
     3    1   60 1    
     4    2   31 2    
     5    3    9 ar   
     6    3   39 1    
     7    3    6 ar   
     8    4   61 1    
     9    4   32 am   BACKBONE|DICT|INTERRES
    10    4   36 1    
    11    5   32 2    
    12    6   11 ar   
    13    6   40 1    
    14    7   62 1    
    15    7   34 am   BACKBONE|DICT|INTERRES
    16    7   35 1    
    17    8   33 2    
    18    9   41 1    
    19    9   13 ar   
    20   10   34 2    
    21   11   27 ar   
    22   11   42 1    
    23   12   29 1    
    24   12   30 1    
    25   13   43 1    
    26   13   27 ar   
    27   14   44 1    
    28   14   18 ar   
    29   14   26 ar   
    30   15   26 ar   
    31   15   19 ar   
    32   15   45 1    
    33   16   20 ar   
    34   16   28 ar   
    35   16   46 1    
    36   17   21 ar   
    37   17   28 ar   
    38   17   47 1    
    39   18   48 1    
    40   18   29 ar   
    41   19   29 ar   
    42   19   49 1    
    43   20   50 1    
    44   20   30 ar   
    45   21   30 ar   
    46   21   51 1    
    47   22   52 1    
    48   22   26 1    
    49   22   35 1    
    50   22   53 1    
    51   23   55 1    
    52   23   31 1    
    53   23   54 1    
    54   24   25 1    
    55   24   27 1    
    56   24   56 1    
    57   24   57 1    
    58   25   58 1    
    59   25   36 1    
    60   25   59 1    
    61   28   31 1    
    62   32   35 1    
    63   33   36 1    
    64   34   63 1    
    65   35   37 1    
    66   36   38 1    
    67   63   64 1    
    68   64   69 1    
    69   64   65 1    
    70   64   73 1    
    71   65   67 1    
    72   65   68 1    
    73   65   66 1    
    74   69   70 1    
    75   69   71 1    
    76   69   72 1    
    77   73   74 1    
    78   73   75 1    
    79   73   76 1    
@<TRIPOS>SUBSTRUCTURE
     1 UNK         1 GROUP             0       ****    0 ROOT    
@<TRIPOS>MOLECULE
Cpd4-5-MEC
76   79    1
SMALL
USER_CHARGES


@<TRIPOS>ATOM
      1 N1         -4.4761   18.0838  -23.3779 N.am      1 UNK         0.0000 
      2 O2         -3.2378   20.7342  -21.7168 O.2       1 UNK         0.0000 
      3 C3        -10.0447   17.5264  -28.3424 C.ar      1 UNK         0.0000 
      4 N4         -3.8904   14.9032  -25.0048 N.am      1 UNK         0.0000 
      5 O5         -3.1769   14.8809  -27.1673 O.2       1 UNK         0.0000 
      6 C6        -10.1603   17.2486  -26.9819 C.ar      1 UNK         0.0000 
      7 N7         -3.5831   12.0073  -26.7343 N.am      1 UNK         0.0000 
      8 O8         -4.8638   15.9625  -22.6373 O.2       1 UNK         0.0000 
      9 C9         -8.8068   17.8374  -28.9015 C.ar      1 UNK         0.0000 
     10 O10        -2.9740   10.0106  -25.6761 O.2       1 UNK         0.0000 
     11 C11        -9.0277   17.2826  -26.1724 C.ar      1 UNK         0.0000 
     12 O12         1.2045   16.1524  -22.4230 O.3       1 UNK         0.0000 
     13 C13        -7.6738   17.8716  -28.0927 C.ar      1 UNK         0.0000 
     14 C14         0.0702   14.8690  -25.6531 C.ar      1 UNK         0.0000 
     15 C15        -0.1741   13.1428  -23.9712 C.ar      1 UNK         0.0000 
     16 C16        -2.0484   17.3680  -21.2656 C.ar      1 UNK         0.0000 
     17 C17        -0.8397   19.1834  -22.3147 C.ar      1 UNK         0.0000 
     18 C18         0.6905   15.6900  -24.7188 C.ar      1 UNK         0.0000 
     19 C19         0.4509   13.9629  -23.0368 C.ar      1 UNK         0.0000 
     20 C20        -0.9374   16.5475  -21.4070 C.ar      1 UNK         0.0000 
     21 C21         0.2720   18.3574  -22.4630 C.ar      1 UNK         0.0000 
     22 C22        -1.2609   12.7989  -26.2282 C.3       1 UNK         0.0000 
     23 C23        -4.5987   18.8047  -22.1029 C.3       1 UNK         0.0000 
     24 C24        -6.5447   17.6278  -25.8438 C.3       1 UNK         0.0000 
     25 C25        -5.8520   16.2526  -25.7397 C.3       1 UNK         0.0000 
     26 C26        -0.4079   13.6158  -25.2648 C.ar      1 UNK         0.0000 
     27 C27        -7.7835   17.5953  -26.7270 C.ar      1 UNK         0.0000 
     28 C28        -2.0275   18.6686  -21.7801 C.ar      1 UNK         0.0000 
     29 C29         0.8308   15.2568  -23.3975 C.ar      1 UNK         0.0000 
     30 C30         0.2025   17.0234  -22.0612 C.ar      1 UNK         0.0000 
     31 C31        -3.2661   19.5033  -21.7558 C.2       1 UNK         0.0000 
     32 C32        -3.3154   14.3240  -26.0757 C.2       1 UNK         0.0000 
     33 C33        -4.6197   16.7552  -23.5482 C.2       1 UNK         0.0000 
     34 C34        -3.5755   10.6288  -26.5573 C.2       1 UNK         0.0000 
     35 C35        -2.7814   12.8850  -25.8728 C.3       1 UNK         0.0000 
     36 C36        -4.4925   16.2404  -24.9954 C.3       1 UNK         0.0000 
     37 H37        -2.9290   12.5873  -24.8307 H         1 UNK         0.0000 
     38 H38        -3.8081   16.9130  -25.5168 H         1 UNK         0.0000 
     39 H39       -10.9232   17.4996  -28.9701 H         1 UNK         0.0000 
     40 H40       -11.1236   17.0074  -26.5572 H         1 UNK         0.0000 
     41 H41        -8.7263   18.0502  -29.9573 H         1 UNK         0.0000 
     42 H42        -9.1177   17.0648  -25.1180 H         1 UNK         0.0000 
     43 H43        -6.7140   18.1104  -28.5275 H         1 UNK         0.0000 
     44 H44        -0.1012   15.2362  -26.6546 H         1 UNK         0.0000 
     45 H45        -0.5345   12.1693  -23.6715 H         1 UNK         0.0000 
     46 H46        -2.9368   16.9611  -20.8046 H         1 UNK         0.0000 
     47 H47        -0.7906   20.1972  -22.6864 H         1 UNK         0.0000 
     48 H48         0.9868   16.6905  -24.9985 H         1 UNK         0.0000 
     49 H49         0.5609   13.6277  -22.0159 H         1 UNK         0.0000 
     50 H50        -0.9894   15.5210  -21.0753 H         1 UNK         0.0000 
     51 H51         1.1570   18.7311  -22.9570 H         1 UNK         0.0000 
     52 H52        -1.0800   13.1169  -27.2573 H         1 UNK         0.0000 
     53 H53        -0.9119   11.7660  -26.1871 H         1 UNK         0.0000 
     54 H54        -4.8868   18.1552  -21.2745 H         1 UNK         0.0000 
     55 H55        -5.4038   19.5357  -22.1905 H         1 UNK         0.0000 
     56 H56        -6.8343   17.9908  -24.8568 H         1 UNK         0.0000 
     57 H57        -5.8463   18.3726  -26.2291 H         1 UNK         0.0000 
     58 H58        -6.5365   15.5360  -25.2826 H         1 UNK         0.0000 
     59 H59        -5.7015   15.8772  -26.7529 H         1 UNK         0.0000 
     60 H60        -4.3138   18.6560  -24.1942 H         1 UNK         0.0000 
     61 H61        -3.9496   14.3902  -24.1368 H         1 UNK         0.0000 
     62 H62        -4.0410   12.4056  -27.5416 H         1 UNK         0.0000 
     63 O63        -4.3479   10.0637  -27.5257 O.3       1 UNK         0.0000 
     64 C64        -4.5885    8.6520  -27.6861 C.3       1 UNK         0.0000 
     65 C65        -3.2737    7.8842  -27.9742 C.3       1 UNK         0.0000 
     66 H66        -3.4704    6.8425  -28.2310 H         1 UNK         0.0000 
     67 H67        -2.7303    8.3296  -28.8085 H         1 UNK         0.0000 
     68 H68        -2.6003    7.8805  -27.1172 H         1 UNK         0.0000 
     69 C69        -5.3172    8.0601  -26.4534 C.3       1 UNK         0.0000 
     70 H70        -4.6897    8.0601  -25.5623 H         1 UNK         0.0000 
     71 H71        -6.2161    8.6298  -26.2141 H         1 UNK         0.0000 
     72 H72        -5.6219    7.0278  -26.6302 H         1 UNK         0.0000 
     73 C73        -5.5130    8.5582  -28.9180 C.3       1 UNK         0.0000 
     74 H74        -6.4454    9.1028  -28.7610 H         1 UNK         0.0000 
     75 H75        -5.0409    8.9822  -29.8057 H         1 UNK         0.0000 
     76 H76        -5.7730    7.5240  -29.1481 H         1 UNK         0.0000 
@<TRIPOS>BOND
     1    1   23 1    
     2    1   33 am   BACKBONE|DICT|INTERRES
     3    1   60 1    
     4    2   31 2    
     5    3    6 ar   
     6    3    9 ar   
     7    3   39 1    
     8    4   36 1    
     9    4   61 1    
    10    4   32 am   BACKBONE|DICT|INTERRES
    11    5   32 2    
    12    6   40 1    
    13    6   11 ar   
    14    7   34 am   BACKBONE|DICT|INTERRES
    15    7   35 1    
    16    7   62 1    
    17    8   33 2    
    18    9   13 ar   
    19    9   41 1    
    20   10   34 2    
    21   11   42 1    
    22   11   27 ar   
    23   12   30 1    
    24   12   29 1    
    25   13   27 ar   
    26   13   43 1    
    27   14   26 ar   
    28   14   18 ar   
    29   14   44 1    
    30   15   45 1    
    31   15   19 ar   
    32   15   26 ar   
    33   16   46 1    
    34   16   20 ar   
    35   16   28 ar   
    36   17   28 ar   
    37   17   21 ar   
    38   17   47 1    
    39   18   29 ar   
    40   18   48 1    
    41   19   49 1    
    42   19   29 ar   
    43   20   50 1    
    44   20   30 ar   
    45   21   30 ar   
    46   21   51 1    
    47   22   53 1    
    48   22   35 1    
    49   22   26 1    
    50   22   52 1    
    51   23   31 1    
    52   23   54 1    
    53   23   55 1    
    54   24   25 1    
    55   24   56 1    
    56   24   27 1    
    57   24   57 1    
    58   25   58 1    
    59   25   36 1    
    60   25   59 1    
    61   28   31 1    
    62   32   35 1    
    63   33   36 1    
    64   34   63 1    
    65   35   37 1    
    66   36   38 1    
    67   63   64 1    
    68   64   69 1    
    69   64   65 1    
    70   64   73 1    
    71   65   68 1    
    72   65   66 1    
    73   65   67 1    
    74   69   71 1    
    75   69   70 1    
    76   69   72 1    
    77   73   74 1    
    78   73   75 1    
    79   73   76 1    
@<TRIPOS>SUBSTRUCTURE
     1 UNK         1 GROUP             0       ****    0 ROOT    
@<TRIPOS>MOLECULE
Cpd4-6
76   79    1
SMALL
USER_CHARGES


@<TRIPOS>ATOM
      1 N1         -4.3536   18.4328  -23.9498 N.am      1 UNK         0.0000 
      2 O2         -4.0384   18.9734  -20.4965 O.2       1 UNK         0.0000 
      3 C3         -8.4232   19.8902  -27.2813 C.ar      1 UNK         0.0000 
      4 N4         -3.8356   15.6907  -25.9585 N.am      1 UNK         0.0000 
      5 O5         -3.7690   13.8028  -24.6884 O.2       1 UNK         0.0000 
      6 C6         -8.6591   18.5899  -27.7229 C.ar      1 UNK         0.0000 
      7 N7         -1.9103   14.6591  -27.7437 N.am      1 UNK         0.0000 
      8 O8         -4.3730   16.3633  -22.9591 O.2       1 UNK         0.0000 
      9 C9         -7.8812   20.1244  -26.0194 C.ar      1 UNK         0.0000 
     10 O10        -3.7055   14.4869  -29.2387 O.2       1 UNK         0.0000 
     11 C11        -8.3483   17.5139  -26.8958 C.ar      1 UNK         0.0000 
     12 O12         1.3593   16.2665  -22.5525 O.3       1 UNK         0.0000 
     13 C13        -7.5707   19.0486  -25.1920 C.ar      1 UNK         0.0000 
     14 C14         0.4984   14.5277  -25.6418 C.ar      1 UNK         0.0000 
     15 C15        -0.5545   13.4093  -23.7699 C.ar      1 UNK         0.0000 
     16 C16        -1.3509   18.6892  -22.9356 C.ar      1 UNK         0.0000 
     17 C17        -1.5437   17.5928  -20.7879 C.ar      1 UNK         0.0000 
     18 C18         1.1806   15.3623  -24.7619 C.ar      1 UNK         0.0000 
     19 C19         0.1346   14.2341  -22.8909 C.ar      1 UNK         0.0000 
     20 C20        -0.1402   18.0423  -23.1542 C.ar      1 UNK         0.0000 
     21 C21        -0.3307   16.9482  -21.0052 C.ar      1 UNK         0.0000 
     22 C22        -1.3466   12.8462  -26.0975 C.3       1 UNK         0.0000 
     23 C23        -4.2943   19.3952  -22.8300 C.3       1 UNK         0.0000 
     24 C24        -7.4510   16.5613  -24.7304 C.3       1 UNK         0.0000 
     25 C25        -6.2479   15.7264  -25.2281 C.3       1 UNK         0.0000 
     26 C26        -0.4212   13.5985  -25.1465 C.ar      1 UNK         0.0000 
     27 C27        -7.7997   17.7411  -25.6303 C.ar      1 UNK         0.0000 
     28 C28        -2.0927   18.4175  -21.7792 C.ar      1 UNK         0.0000 
     29 C29         0.9445   15.2583  -23.3907 C.ar      1 UNK         0.0000 
     30 C30         0.3380   17.1245  -22.2157 C.ar      1 UNK         0.0000 
     31 C31        -3.4673   18.9785  -21.5884 C.2       1 UNK         0.0000 
     32 C32        -3.4122   14.4395  -25.6800 C.2       1 UNK         0.0000 
     33 C33        -4.4800   17.0883  -23.9480 C.2       1 UNK         0.0000 
     34 C34        -2.6055   14.9406  -28.9158 C.2       1 UNK         0.0000 
     35 C35        -2.4551   13.7572  -26.7079 C.3       1 UNK         0.0000 
     36 C36        -4.8895   16.4749  -25.3037 C.3       1 UNK         0.0000 
     37 H37        -3.0960   13.0385  -27.2244 H         1 UNK         0.0000 
     38 H38        -5.0414   17.3076  -25.9927 H         1 UNK         0.0000 
     39 H39        -8.6640   20.7248  -27.9232 H         1 UNK         0.0000 
     40 H40        -9.0806   18.4174  -28.7022 H         1 UNK         0.0000 
     41 H41        -7.7029   21.1355  -25.6842 H         1 UNK         0.0000 
     42 H42        -8.5302   16.5059  -27.2398 H         1 UNK         0.0000 
     43 H43        -7.1512   19.2336  -24.2142 H         1 UNK         0.0000 
     44 H44         0.6262   14.6618  -26.7058 H         1 UNK         0.0000 
     45 H45        -1.2499   12.6809  -23.3786 H         1 UNK         0.0000 
     46 H46        -1.7262   19.3506  -23.7027 H         1 UNK         0.0000 
     47 H47        -2.0801   17.3868  -19.8723 H         1 UNK         0.0000 
     48 H48         1.8121   16.1489  -25.1484 H         1 UNK         0.0000 
     49 H49        -0.0431   14.1464  -21.8290 H         1 UNK         0.0000 
     50 H50         0.3811   18.1873  -24.0891 H         1 UNK         0.0000 
     51 H51         0.0397   16.2425  -20.2761 H         1 UNK         0.0000 
     52 H52        -0.7488   12.3833  -26.8846 H         1 UNK         0.0000 
     53 H53        -1.8100   12.0128  -25.5656 H         1 UNK         0.0000 
     54 H54        -5.3162   19.6384  -22.5344 H         1 UNK         0.0000 
     55 H55        -3.8658   20.3218  -23.2124 H         1 UNK         0.0000 
     56 H56        -8.3287   15.9171  -24.6621 H         1 UNK         0.0000 
     57 H57        -7.2830   16.9049  -23.7086 H         1 UNK         0.0000 
     58 H58        -6.1655   14.8290  -24.6148 H         1 UNK         0.0000 
     59 H59        -6.4773   15.3710  -26.2339 H         1 UNK         0.0000 
     60 H60        -4.4841   18.8756  -24.8481 H         1 UNK         0.0000 
     61 H61        -3.4578   16.1296  -26.7860 H         1 UNK         0.0000 
     62 H62        -1.0407   15.1365  -27.5548 H         1 UNK         0.0000 
     63 O63        -1.8765   15.8266  -29.6478 O.3       1 UNK         0.0000 
     64 C64        -2.2837   16.4106  -30.9004 C.3       1 UNK         0.0000 
     65 C65        -3.5723   17.2556  -30.7342 C.3       1 UNK         0.0000 
     66 H66        -3.8053   17.8079  -31.6454 H         1 UNK         0.0000 
     67 H67        -4.4423   16.6419  -30.5007 H         1 UNK         0.0000 
     68 H68        -3.4669   17.9833  -29.9285 H         1 UNK         0.0000 
     69 C69        -1.1135   17.3380  -31.2894 C.3       1 UNK         0.0000 
     70 H70        -0.9418   18.1048  -30.5323 H         1 UNK         0.0000 
     71 H71        -0.1811   16.7816  -31.3979 H         1 UNK         0.0000 
     72 H72        -1.3018   17.8484  -32.2349 H         1 UNK         0.0000 
     73 C73        -2.4662   15.3300  -31.9958 C.3       1 UNK         0.0000 
     74 H74        -1.5818   14.6968  -32.0780 H         1 UNK         0.0000 
     75 H75        -3.3135   14.6749  -31.7944 H         1 UNK         0.0000 
     76 H76        -2.6367   15.7815  -32.9741 H         1 UNK         0.0000 
@<TRIPOS>BOND
     1    1   33 am   BACKBONE|DICT|INTERRES
     2    1   23 1    
     3    1   60 1    
     4    2   31 2    
     5    3    9 ar   
     6    3    6 ar   
     7    3   39 1    
     8    4   32 am   BACKBONE|DICT|INTERRES
     9    4   36 1    
    10    4   61 1    
    11    5   32 2    
    12    6   11 ar   
    13    6   40 1    
    14    7   35 1    
    15    7   62 1    
    16    7   34 am   BACKBONE|DICT|INTERRES
    17    8   33 2    
    18    9   41 1    
    19    9   13 ar   
    20   10   34 2    
    21   11   27 ar   
    22   11   42 1    
    23   12   29 1    
    24   12   30 1    
    25   13   43 1    
    26   13   27 ar   
    27   14   18 ar   
    28   14   26 ar   
    29   14   44 1    
    30   15   19 ar   
    31   15   26 ar   
    32   15   45 1    
    33   16   28 ar   
    34   16   20 ar   
    35   16   46 1    
    36   17   47 1    
    37   17   21 ar   
    38   17   28 ar   
    39   18   29 ar   
    40   18   48 1    
    41   19   49 1    
    42   19   29 ar   
    43   20   30 ar   
    44   20   50 1    
    45   21   51 1    
    46   21   30 ar   
    47   22   53 1    
    48   22   26 1    
    49   22   35 1    
    50   22   52 1    
    51   23   31 1    
    52   23   54 1    
    53   23   55 1    
    54   24   25 1    
    55   24   57 1    
    56   24   27 1    
    57   24   56 1    
    58   25   58 1    
    59   25   36 1    
    60   25   59 1    
    61   28   31 1    
    62   32   35 1    
    63   33   36 1    
    64   34   63 1    
    65   35   37 1    
    66   36   38 1    
    67   63   64 1    
    68   64   69 1    
    69   64   65 1    
    70   64   73 1    
    71   65   68 1    
    72   65   66 1    
    73   65   67 1    
    74   69   71 1    
    75   69   70 1    
    76   69   72 1    
    77   73   74 1    
    78   73   75 1    
    79   73   76 1    
@<TRIPOS>SUBSTRUCTURE
     1 UNK         1 GROUP             0       ****    0 ROOT    
@<TRIPOS>MOLECULE
Cpd4-7
76   79    1
SMALL
USER_CHARGES


@<TRIPOS>ATOM
      1 N1         -4.2015   18.4659  -23.8493 N.am      1 UNK         0.0000 
      2 O2         -4.0040   18.9902  -20.3929 O.2       1 UNK         0.0000 
      3 C3         -9.2198   19.2193  -23.3125 C.ar      1 UNK         0.0000 
      4 N4         -3.9069   15.1108  -25.0107 N.am      1 UNK         0.0000 
      5 O5         -3.0806   14.8045  -27.1120 O.2       1 UNK         0.0000 
      6 C6         -9.4251   17.9551  -23.8601 C.ar      1 UNK         0.0000 
      7 N7         -3.7489   11.9723  -26.2616 N.am      1 UNK         0.0000 
      8 O8         -5.0717   16.5875  -22.8875 O.2       1 UNK         0.0000 
      9 C9         -8.1501   20.0079  -23.7297 C.ar      1 UNK         0.0000 
     10 O10        -5.4438   11.9963  -24.6454 O.2       1 UNK         0.0000 
     11 C11        -8.5497   17.4726  -24.8293 C.ar      1 UNK         0.0000 
     12 O12         1.3602   16.3458  -22.6755 O.3       1 UNK         0.0000 
     13 C13        -7.2753   19.5259  -24.6994 C.ar      1 UNK         0.0000 
     14 C14         0.1540   14.6312  -25.6672 C.ar      1 UNK         0.0000 
     15 C15        -0.2553   13.2432  -23.7246 C.ar      1 UNK         0.0000 
     16 C16        -1.3015   18.8455  -22.8066 C.ar      1 UNK         0.0000 
     17 C17        -1.5753   17.4868  -20.8233 C.ar      1 UNK         0.0000 
     18 C18         0.8455   15.5394  -24.8726 C.ar      1 UNK         0.0000 
     19 C19         0.4367   14.1506  -22.9303 C.ar      1 UNK         0.0000 
     20 C20        -0.0999   18.2023  -23.0815 C.ar      1 UNK         0.0000 
     21 C21        -0.3732   16.8431  -21.0989 C.ar      1 UNK         0.0000 
     22 C22        -1.3816   12.6338  -25.9012 C.3       1 UNK         0.0000 
     23 C23        -4.2872   19.4173  -22.7273 C.3       1 UNK         0.0000 
     24 C24        -6.5020   17.7273  -26.3065 C.3       1 UNK         0.0000 
     25 C25        -5.8190   16.3771  -25.9725 C.3       1 UNK         0.0000 
     26 C26        -0.4432   13.5122  -25.0820 C.ar      1 UNK         0.0000 
     27 C27        -7.4647   18.2521  -25.2440 C.ar      1 UNK         0.0000 
     28 C28        -2.0796   18.4432  -21.7135 C.ar      1 UNK         0.0000 
     29 C29         0.9333   15.3278  -23.4948 C.ar      1 UNK         0.0000 
     30 C30         0.3328   17.1597  -22.2603 C.ar      1 UNK         0.0000 
     31 C31        -3.4462   19.0115  -21.4912 C.2       1 UNK         0.0000 
     32 C32        -3.3057   14.3874  -25.9745 C.2       1 UNK         0.0000 
     33 C33        -4.5963   17.1772  -23.8586 C.2       1 UNK         0.0000 
     34 C34        -4.9682   11.5923  -25.7090 C.2       1 UNK         0.0000 
     35 C35        -2.8753   12.9487  -25.5949 C.3       1 UNK         0.0000 
     36 C36        -4.4708   16.4483  -25.2089 C.3       1 UNK         0.0000 
     37 H37        -2.9835   12.8214  -24.5137 H         1 UNK         0.0000 
     38 H38        -3.7653   17.0173  -25.8185 H         1 UNK         0.0000 
     39 H39        -9.8984   19.5931  -22.5602 H         1 UNK         0.0000 
     40 H40       -10.2603   17.3522  -23.5352 H         1 UNK         0.0000 
     41 H41        -7.9993   20.9885  -23.3026 H         1 UNK         0.0000 
     42 H42        -8.7165   16.4937  -25.2544 H         1 UNK         0.0000 
     43 H43        -6.4466   20.1411  -25.0185 H         1 UNK         0.0000 
     44 H44         0.0186   14.8387  -26.7188 H         1 UNK         0.0000 
     45 H45        -0.7067   12.3727  -23.2710 H         1 UNK         0.0000 
     46 H46        -1.6453   19.6113  -23.4870 H         1 UNK         0.0000 
     47 H47        -2.1410   17.1800  -19.9547 H         1 UNK         0.0000 
     48 H48         1.2322   16.4481  -25.3103 H         1 UNK         0.0000 
     49 H49         0.5075   13.9845  -21.8653 H         1 UNK         0.0000 
     50 H50         0.4515   18.4574  -23.9744 H         1 UNK         0.0000 
     51 H51        -0.0350   16.0429  -20.4571 H         1 UNK         0.0000 
     52 H52        -1.1727   12.7498  -26.9667 H         1 UNK         0.0000 
     53 H53        -1.1592   11.5894  -25.6751 H         1 UNK         0.0000 
     54 H54        -5.3346   19.5509  -22.4508 H         1 UNK         0.0000 
     55 H55        -3.9378   20.3880  -23.0790 H         1 UNK         0.0000 
     56 H56        -5.7401   18.4758  -26.5310 H         1 UNK         0.0000 
     57 H57        -7.0668   17.6215  -27.2338 H         1 UNK         0.0000 
     58 H58        -6.5058   15.7270  -25.4290 H         1 UNK         0.0000 
     59 H59        -5.6632   15.8523  -26.9159 H         1 UNK         0.0000 
     60 H60        -3.8639   18.8553  -24.7178 H         1 UNK         0.0000 
     61 H61        -4.0409   14.7066  -24.0948 H         1 UNK         0.0000 
     62 H62        -3.4671   11.6016  -27.1578 H         1 UNK         0.0000 
     63 O63        -5.5663   10.7028  -26.5484 O.3       1 UNK         0.0000 
     64 C64        -6.8618   10.1048  -26.3468 C.3       1 UNK         0.0000 
     65 C65        -7.9796   11.1779  -26.3174 C.3       1 UNK         0.0000 
     66 H66        -8.9695   10.7200  -26.3039 H         1 UNK         0.0000 
     67 H67        -7.9129   11.8214  -25.4403 H         1 UNK         0.0000 
     68 H68        -7.9304   11.8244  -27.1948 H         1 UNK         0.0000 
     69 C69        -7.0609    9.1965  -27.5781 C.3       1 UNK         0.0000 
     70 H70        -7.0294    9.7687  -28.5068 H         1 UNK         0.0000 
     71 H71        -6.2812    8.4361  -27.6448 H         1 UNK         0.0000 
     72 H72        -8.0207    8.6790  -27.5453 H         1 UNK         0.0000 
     73 C73        -6.8908    9.2390  -25.0622 C.3       1 UNK         0.0000 
     74 H74        -6.0726    8.5178  -25.0529 H         1 UNK         0.0000 
     75 H75        -6.8013    9.8386  -24.1566 H         1 UNK         0.0000 
     76 H76        -7.8225    8.6773  -24.9831 H         1 UNK         0.0000 
@<TRIPOS>BOND
     1    1   23 1    
     2    1   33 am   BACKBONE|DICT|INTERRES
     3    1   60 1    
     4    2   31 2    
     5    3   39 1    
     6    3    9 ar   
     7    3    6 ar   
     8    4   61 1    
     9    4   32 am   BACKBONE|DICT|INTERRES
    10    4   36 1    
    11    5   32 2    
    12    6   11 ar   
    13    6   40 1    
    14    7   35 1    
    15    7   34 am   BACKBONE|DICT|INTERRES
    16    7   62 1    
    17    8   33 2    
    18    9   41 1    
    19    9   13 ar   
    20   10   34 2    
    21   11   27 ar   
    22   11   42 1    
    23   12   29 1    
    24   12   30 1    
    25   13   43 1    
    26   13   27 ar   
    27   14   26 ar   
    28   14   18 ar   
    29   14   44 1    
    30   15   45 1    
    31   15   19 ar   
    32   15   26 ar   
    33   16   28 ar   
    34   16   20 ar   
    35   16   46 1    
    36   17   47 1    
    37   17   21 ar   
    38   17   28 ar   
    39   18   29 ar   
    40   18   48 1    
    41   19   49 1    
    42   19   29 ar   
    43   20   30 ar   
    44   20   50 1    
    45   21   51 1    
    46   21   30 ar   
    47   22   53 1    
    48   22   26 1    
    49   22   35 1    
    50   22   52 1    
    51   23   55 1    
    52   23   31 1    
    53   23   54 1    
    54   24   27 1    
    55   24   56 1    
    56   24   25 1    
    57   24   57 1    
    58   25   36 1    
    59   25   58 1    
    60   25   59 1    
    61   28   31 1    
    62   32   35 1    
    63   33   36 1    
    64   34   63 1    
    65   35   37 1    
    66   36   38 1    
    67   63   64 1    
    68   64   73 1    
    69   64   65 1    
    70   64   69 1    
    71   65   67 1    
    72   65   66 1    
    73   65   68 1    
    74   69   71 1    
    75   69   70 1    
    76   69   72 1    
    77   73   74 1    
    78   73   75 1    
    79   73   76 1    
@<TRIPOS>SUBSTRUCTURE
     1 UNK         1 GROUP             0       ****    0 ROOT    
@<TRIPOS>MOLECULE
Cpd4-8
76   79    1
SMALL
USER_CHARGES


@<TRIPOS>ATOM
      1 N1         -4.8144   17.9609  -23.2479 N.am      1 UNK         0.0000 
      2 O2         -3.3986   20.5698  -21.9148 O.2       1 UNK         0.0000 
      3 C3         -7.0472   18.8934  -29.1141 C.ar      1 UNK         0.0000 
      4 N4         -3.7664   15.7189  -25.9309 N.am      1 UNK         0.0000 
      5 O5         -3.8256   13.6375  -25.0160 O.2       1 UNK         0.0000 
      6 C6         -7.9933   18.6924  -28.1109 C.ar      1 UNK         0.0000 
      7 N7         -1.8611   14.9721  -27.7814 N.am      1 UNK         0.0000 
      8 O8         -3.6946   15.9796  -23.0444 O.2       1 UNK         0.0000 
      9 C9         -6.0066   17.9860  -29.3017 C.ar      1 UNK         0.0000 
     10 O10        -1.1421   13.6076  -29.5419 O.2       1 UNK         0.0000 
     11 C11        -7.8981   17.5739  -27.2869 C.ar      1 UNK         0.0000 
     12 O12         1.1982   16.0989  -22.3410 O.3       1 UNK         0.0000 
     13 C13        -5.9110   16.8673  -28.4787 C.ar      1 UNK         0.0000 
     14 C14         0.4679   14.6687  -25.6227 C.ar      1 UNK         0.0000 
     15 C15        -0.6426   13.3629  -23.9138 C.ar      1 UNK         0.0000 
     16 C16        -1.8919   17.4834  -20.9774 C.ar      1 UNK         0.0000 
     17 C17        -1.0331   18.9766  -22.6798 C.ar      1 UNK         0.0000 
     18 C18         1.0889   15.4310  -24.6383 C.ar      1 UNK         0.0000 
     19 C19        -0.0115   14.1139  -22.9302 C.ar      1 UNK         0.0000 
     20 C20        -0.7479   16.7024  -21.0840 C.ar      1 UNK         0.0000 
     21 C21         0.1049   18.1836  -22.7981 C.ar      1 UNK         0.0000 
     22 C22        -1.2920   12.9739  -26.3234 C.3       1 UNK         0.0000 
     23 C23        -4.6491   18.5252  -21.9016 C.3       1 UNK         0.0000 
     24 C24        -6.7454   15.4429  -26.5606 C.3       1 UNK         0.0000 
     25 C25        -6.1774   15.7506  -25.1567 C.3       1 UNK         0.0000 
     26 C26        -0.4473   13.6757  -25.2607 C.ar      1 UNK         0.0000 
     27 C27        -6.8562   16.6607  -27.4691 C.ar      1 UNK         0.0000 
     28 C28        -2.0679   18.5827  -21.8246 C.ar      1 UNK         0.0000 
     29 C29         0.8030   15.1896  -23.2935 C.ar      1 UNK         0.0000 
     30 C30         0.2191   17.0160  -22.0404 C.ar      1 UNK         0.0000 
     31 C31        -3.3455   19.3450  -21.7960 C.2       1 UNK         0.0000 
     32 C32        -3.3946   14.4216  -25.8623 C.2       1 UNK         0.0000 
     33 C33        -4.3603   16.7767  -23.7049 C.2       1 UNK         0.0000 
     34 C34        -1.2454   14.7095  -28.9988 C.2       1 UNK         0.0000 
     35 C35        -2.4073   13.8851  -26.9456 C.3       1 UNK         0.0000 
     36 C36        -4.7847   16.4343  -25.1475 C.3       1 UNK         0.0000 
     37 H37        -3.0196   13.2599  -27.5995 H         1 UNK         0.0000 
     38 H38        -4.8884   17.3896  -25.6642 H         1 UNK         0.0000 
     39 H39        -7.1211   19.7614  -29.7523 H         1 UNK         0.0000 
     40 H40        -8.7962   19.4014  -27.9724 H         1 UNK         0.0000 
     41 H41        -5.2768   18.1499  -30.0809 H         1 UNK         0.0000 
     42 H42        -8.6299   17.4198  -26.5071 H         1 UNK         0.0000 
     43 H43        -5.1008   16.1669  -28.6230 H         1 UNK         0.0000 
     44 H44         0.6473   14.9000  -26.6621 H         1 UNK         0.0000 
     45 H45        -1.3346   12.5853  -23.6243 H         1 UNK         0.0000 
     46 H46        -2.6562   17.1906  -20.2721 H         1 UNK         0.0000 
     47 H47        -1.1360   19.8463  -23.3135 H         1 UNK         0.0000 
     48 H48         1.7252   16.2570  -24.9202 H         1 UNK         0.0000 
     49 H49        -0.2267   13.9174  -21.8903 H         1 UNK         0.0000 
     50 H50        -0.6538   15.8091  -20.4845 H         1 UNK         0.0000 
     51 H51         0.8588   18.4330  -23.5303 H         1 UNK         0.0000 
     52 H52        -0.6258   12.5852  -27.0943 H         1 UNK         0.0000 
     53 H53        -1.7525   12.0846  -25.8887 H         1 UNK         0.0000 
     54 H54        -4.6868   17.7509  -21.1342 H         1 UNK         0.0000 
     55 H55        -5.5057   19.1646  -21.6846 H         1 UNK         0.0000 
     56 H56        -6.1468   14.6732  -27.0502 H         1 UNK         0.0000 
     57 H57        -7.7364   14.9980  -26.4591 H         1 UNK         0.0000 
     58 H58        -6.8789   16.4070  -24.6390 H         1 UNK         0.0000 
     59 H59        -6.1498   14.8276  -24.5765 H         1 UNK         0.0000 
     60 H60        -5.3685   18.5206  -23.8803 H         1 UNK         0.0000 
     61 H61        -3.3447   16.2801  -26.6569 H         1 UNK         0.0000 
     62 H62        -1.7984   15.8985  -27.3844 H         1 UNK         0.0000 
     63 O63        -0.7652   15.8806  -29.4988 O.3       1 UNK         0.0000 
     64 C64        -0.0412   16.0278  -30.7355 C.3       1 UNK         0.0000 
     65 C65        -0.9088   15.6133  -31.9506 C.3       1 UNK         0.0000 
     66 H66        -0.4141   15.8547  -32.8922 H         1 UNK         0.0000 
     67 H67        -1.1180   14.5439  -31.9643 H         1 UNK         0.0000 
     68 H68        -1.8700   16.1292  -31.9445 H         1 UNK         0.0000 
     69 C69         0.2676   17.5371  -30.8208 C.3       1 UNK         0.0000 
     70 H70        -0.6465   18.1329  -30.8256 H         1 UNK         0.0000 
     71 H71         0.8632   17.8724  -29.9703 H         1 UNK         0.0000 
     72 H72         0.8234   17.7833  -31.7267 H         1 UNK         0.0000 
     73 C73         1.2893   15.2340  -30.7066 C.3       1 UNK         0.0000 
     74 H74         1.8793   15.4833  -29.8236 H         1 UNK         0.0000 
     75 H75         1.1277   14.1563  -30.6913 H         1 UNK         0.0000 
     76 H76         1.9018   15.4536  -31.5820 H         1 UNK         0.0000 
@<TRIPOS>BOND
     1    1   33 am   BACKBONE|DICT|INTERRES
     2    1   23 1    
     3    1   60 1    
     4    2   31 2    
     5    3    9 ar   
     6    3    6 ar   
     7    3   39 1    
     8    4   36 1    
     9    4   32 am   BACKBONE|DICT|INTERRES
    10    4   61 1    
    11    5   32 2    
    12    6   11 ar   
    13    6   40 1    
    14    7   62 1    
    15    7   35 1    
    16    7   34 am   BACKBONE|DICT|INTERRES
    17    8   33 2    
    18    9   13 ar   
    19    9   41 1    
    20   10   34 2    
    21   11   42 1    
    22   11   27 ar   
    23   12   29 1    
    24   12   30 1    
    25   13   43 1    
    26   13   27 ar   
    27   14   26 ar   
    28   14   18 ar   
    29   14   44 1    
    30   15   45 1    
    31   15   19 ar   
    32   15   26 ar   
    33   16   46 1    
    34   16   20 ar   
    35   16   28 ar   
    36   17   28 ar   
    37   17   21 ar   
    38   17   47 1    
    39   18   29 ar   
    40   18   48 1    
    41   19   49 1    
    42   19   29 ar   
    43   20   50 1    
    44   20   30 ar   
    45   21   30 ar   
    46   21   51 1    
    47   22   53 1    
    48   22   26 1    
    49   22   35 1    
    50   22   52 1    
    51   23   31 1    
    52   23   54 1    
    53   23   55 1    
    54   24   25 1    
    55   24   27 1    
    56   24   56 1    
    57   24   57 1    
    58   25   58 1    
    59   25   36 1    
    60   25   59 1    
    61   28   31 1    
    62   32   35 1    
    63   33   36 1    
    64   34   63 1    
    65   35   37 1    
    66   36   38 1    
    67   63   64 1    
    68   64   73 1    
    69   64   65 1    
    70   64   69 1    
    71   65   67 1    
    72   65   66 1    
    73   65   68 1    
    74   69   71 1    
    75   69   70 1    
    76   69   72 1    
    77   73   75 1    
    78   73   74 1    
    79   73   76 1    
@<TRIPOS>SUBSTRUCTURE
     1 UNK         1 GROUP             0       ****    0 ROOT    
@<TRIPOS>MOLECULE
Cpd4-9
76   79    1
SMALL
USER_CHARGES


@<TRIPOS>ATOM
      1 N1         -4.5202   18.2535  -23.6132 N.am      1 UNK         0.0000 
      2 O2         -3.5808   19.9028  -20.4804 O.2       1 UNK         0.0000 
      3 C3        -11.0154   15.6689  -26.4745 C.ar      1 UNK         0.0000 
      4 N4         -3.5392   15.7513  -26.0320 N.am      1 UNK         0.0000 
      5 O5         -3.9457   13.7459  -25.0305 O.2       1 UNK         0.0000 
      6 C6        -10.4863   15.2566  -25.2532 C.ar      1 UNK         0.0000 
      7 N7         -1.6774   14.5943  -27.7997 N.am      1 UNK         0.0000 
      8 O8         -4.0894   16.0665  -23.1221 O.2       1 UNK         0.0000 
      9 C9        -10.2995   16.5287  -27.3052 C.ar      1 UNK         0.0000 
     10 O10        -3.3696   14.5623  -29.4186 O.2       1 UNK         0.0000 
     11 C11        -9.2299   15.7086  -24.8583 C.ar      1 UNK         0.0000 
     12 O12         1.2395   16.2601  -22.5631 O.3       1 UNK         0.0000 
     13 C13        -9.0430   16.9812  -26.9109 C.ar      1 UNK         0.0000 
     14 C14         0.5882   14.3225  -25.5850 C.ar      1 UNK         0.0000 
     15 C15        -0.7503   13.4453  -23.7669 C.ar      1 UNK         0.0000 
     16 C16        -1.4616   17.8868  -20.7220 C.ar      1 UNK         0.0000 
     17 C17        -1.5347   18.6092  -23.0305 C.ar      1 UNK         0.0000 
     18 C18         1.2288   15.1853  -24.7011 C.ar      1 UNK         0.0000 
     19 C19        -0.1043   14.2983  -22.8827 C.ar      1 UNK         0.0000 
     20 C20        -0.2855   17.1874  -20.9733 C.ar      1 UNK         0.0000 
     21 C21        -0.3597   17.9103  -23.2818 C.ar      1 UNK         0.0000 
     22 C22        -1.3349   12.7579  -26.1211 C.3       1 UNK         0.0000 
     23 C23        -4.7070   18.8013  -22.2633 C.3       1 UNK         0.0000 
     24 C24        -7.1325   17.0623  -25.2566 C.3       1 UNK         0.0000 
     25 C25        -5.9984   16.1119  -25.6962 C.3       1 UNK         0.0000 
     26 C26        -0.4499   13.5048  -25.1285 C.ar      1 UNK         0.0000 
     27 C27        -8.5075   16.5724  -25.6863 C.ar      1 UNK         0.0000 
     28 C28        -2.1296   18.5362  -21.7675 C.ar      1 UNK         0.0000 
     29 C29         0.8319   15.2192  -23.3645 C.ar      1 UNK         0.0000 
     30 C30         0.2329   17.1513  -22.2666 C.ar      1 UNK         0.0000 
     31 C31        -3.4289   19.2085  -21.4863 C.2       1 UNK         0.0000 
     32 C32        -3.3506   14.4238  -25.8686 C.2       1 UNK         0.0000 
     33 C33        -4.3352   16.9574  -23.9351 C.2       1 UNK         0.0000 
     34 C34        -2.2681   14.9377  -29.0116 C.2       1 UNK         0.0000 
     35 C35        -2.3489   13.7079  -26.8271 C.3       1 UNK         0.0000 
     36 C36        -4.5582   16.6205  -25.4270 C.3       1 UNK         0.0000 
     37 H37        -2.9720   13.0228  -27.4072 H         1 UNK         0.0000 
     38 H38        -4.4537   17.5576  -25.9764 H         1 UNK         0.0000 
     39 H39       -11.9897   15.3179  -26.7808 H         1 UNK         0.0000 
     40 H40       -11.0475   14.5890  -24.6162 H         1 UNK         0.0000 
     41 H41       -10.7169   16.8422  -28.2507 H         1 UNK         0.0000 
     42 H42        -8.8190   15.3867  -23.9122 H         1 UNK         0.0000 
     43 H43        -8.4876   17.6460  -27.5567 H         1 UNK         0.0000 
     44 H44         0.8394   14.3563  -26.6351 H         1 UNK         0.0000 
     45 H45        -1.5414   12.8049  -23.4045 H         1 UNK         0.0000 
     46 H46        -1.8804   17.8627  -19.7256 H         1 UNK         0.0000 
     47 H47        -1.9987   19.1609  -23.8355 H         1 UNK         0.0000 
     48 H48         1.9586   15.8902  -25.0713 H         1 UNK         0.0000 
     49 H49        -0.4056   14.3170  -21.8455 H         1 UNK         0.0000 
     50 H50         0.1780   16.6133  -20.1843 H         1 UNK         0.0000 
     51 H51         0.0508   17.9009  -24.2809 H         1 UNK         0.0000 
     52 H52        -0.7045   12.2513  -26.8540 H         1 UNK         0.0000 
     53 H53        -1.8701   11.9600  -25.6024 H         1 UNK         0.0000 
     54 H54        -5.2998   18.1251  -21.6443 H         1 UNK         0.0000 
     55 H55        -5.3316   19.6885  -22.3740 H         1 UNK         0.0000 
     56 H56        -7.1341   17.1876  -24.1728 H         1 UNK         0.0000 
     57 H57        -6.9631   18.0626  -25.6589 H         1 UNK         0.0000 
     58 H58        -6.1589   15.1355  -25.2378 H         1 UNK         0.0000 
     59 H59        -6.1024   15.9328  -26.7679 H         1 UNK         0.0000 
     60 H60        -4.7088   18.8981  -24.3675 H         1 UNK         0.0000 
     61 H61        -2.9754   16.2123  -26.7317 H         1 UNK         0.0000 
     62 H62        -0.7932   15.0085  -27.5419 H         1 UNK         0.0000 
     63 O63        -1.4308   15.7804  -29.6758 O.3       1 UNK         0.0000 
     64 C64        -1.6999   16.3924  -30.9521 C.3       1 UNK         0.0000 
     65 C65        -1.8626   15.3281  -32.0664 C.3       1 UNK         0.0000 
     66 H66        -1.9271   15.7918  -33.0516 H         1 UNK         0.0000 
     67 H67        -1.0157   14.6409  -32.0835 H         1 UNK         0.0000 
     68 H68        -2.7622   14.7269  -31.9367 H         1 UNK         0.0000 
     69 C69        -2.9417   17.3169  -30.8824 C.3       1 UNK         0.0000 
     70 H70        -3.8644   16.7591  -30.7231 H         1 UNK         0.0000 
     71 H71        -2.8550   18.0348  -30.0657 H         1 UNK         0.0000 
     72 H72        -3.0662   17.8848  -31.8052 H         1 UNK         0.0000 
     73 C73        -0.4462   17.2445  -31.2403 C.3       1 UNK         0.0000 
     74 H74        -0.2866   17.9965  -30.4659 H         1 UNK         0.0000 
     75 H75         0.4547   16.6302  -31.2796 H         1 UNK         0.0000 
     76 H76        -0.5266   17.7687  -32.1937 H         1 UNK         0.0000 
@<TRIPOS>BOND
     1    1   33 am   BACKBONE|DICT|INTERRES
     2    1   23 1    
     3    1   60 1    
     4    2   31 2    
     5    3    6 ar   
     6    3    9 ar   
     7    3   39 1    
     8    4   32 am   BACKBONE|DICT|INTERRES
     9    4   36 1    
    10    4   61 1    
    11    5   32 2    
    12    6   40 1    
    13    6   11 ar   
    14    7   62 1    
    15    7   35 1    
    16    7   34 am   BACKBONE|DICT|INTERRES
    17    8   33 2    
    18    9   13 ar   
    19    9   41 1    
    20   10   34 2    
    21   11   42 1    
    22   11   27 ar   
    23   12   29 1    
    24   12   30 1    
    25   13   27 ar   
    26   13   43 1    
    27   14   26 ar   
    28   14   18 ar   
    29   14   44 1    
    30   15   45 1    
    31   15   19 ar   
    32   15   26 ar   
    33   16   20 ar   
    34   16   46 1    
    35   16   28 ar   
    36   17   21 ar   
    37   17   28 ar   
    38   17   47 1    
    39   18   29 ar   
    40   18   48 1    
    41   19   49 1    
    42   19   29 ar   
    43   20   50 1    
    44   20   30 ar   
    45   21   30 ar   
    46   21   51 1    
    47   22   53 1    
    48   22   26 1    
    49   22   35 1    
    50   22   52 1    
    51   23   54 1    
    52   23   31 1    
    53   23   55 1    
    54   24   25 1    
    55   24   56 1    
    56   24   27 1    
    57   24   57 1    
    58   25   58 1    
    59   25   36 1    
    60   25   59 1    
    61   28   31 1    
    62   32   35 1    
    63   33   36 1    
    64   34   63 1    
    65   35   37 1    
    66   36   38 1    
    67   63   64 1    
    68   64   73 1    
    69   64   65 1    
    70   64   69 1    
    71   65   67 1    
    72   65   66 1    
    73   65   68 1    
    74   69   71 1    
    75   69   70 1    
    76   69   72 1    
    77   73   74 1    
    78   73   75 1    
    79   73   76 1    
@<TRIPOS>SUBSTRUCTURE
     1 UNK         1 GROUP             0       ****    0 ROOT    
@<TRIPOS>MOLECULE
Cpd4-10
76   79    1
SMALL
USER_CHARGES


@<TRIPOS>ATOM
      1 N1         -4.6856   18.0548  -23.4745 N.am      1 UNK         0.0000 
      2 O2         -3.2498   20.5744  -21.8476 O.2       1 UNK         0.0000 
      3 C3         -5.8844   13.0351  -29.5162 C.ar      1 UNK         0.0000 
      4 N4         -4.4953   15.0483  -25.4982 N.am      1 UNK         0.0000 
      5 O5         -2.3834   15.4702  -24.8519 O.2       1 UNK         0.0000 
      6 C6         -7.1308   13.3067  -28.9562 C.ar      1 UNK         0.0000 
      7 N7         -3.7794   12.4324  -26.3919 N.am      1 UNK         0.0000 
      8 O8         -5.2920   15.9327  -22.8917 O.2       1 UNK         0.0000 
      9 C9         -4.8347   13.9416  -29.3854 C.ar      1 UNK         0.0000 
     10 O10        -5.0918   11.7722  -24.5684 O.2       1 UNK         0.0000 
     11 C11        -7.3282   14.4905  -28.2516 C.ar      1 UNK         0.0000 
     12 O12         1.3250   16.1071  -22.5112 O.3       1 UNK         0.0000 
     13 C13        -5.0342   15.1309  -28.6896 C.ar      1 UNK         0.0000 
     14 C14         0.3785   14.7804  -25.7606 C.ar      1 UNK         0.0000 
     15 C15        -0.0517   13.1182  -24.0492 C.ar      1 UNK         0.0000 
     16 C16        -0.8429   19.0655  -22.4136 C.ar      1 UNK         0.0000 
     17 C17        -2.0764   17.1608  -21.5833 C.ar      1 UNK         0.0000 
     18 C18         1.0355   15.5714  -24.8251 C.ar      1 UNK         0.0000 
     19 C19         0.6205   13.9019  -23.1182 C.ar      1 UNK         0.0000 
     20 C20         0.2992   18.2754  -22.5381 C.ar      1 UNK         0.0000 
     21 C21        -0.9340   16.3777  -21.6951 C.ar      1 UNK         0.0000 
     22 C22        -1.3529   12.9983  -26.2120 C.3       1 UNK         0.0000 
     23 C23        -4.6564   18.6697  -22.1431 C.3       1 UNK         0.0000 
     24 C24        -6.5042   16.7052  -27.3564 C.3       1 UNK         0.0000 
     25 C25        -6.4508   16.5699  -25.8183 C.3       1 UNK         0.0000 
     26 C26        -0.2602   13.6106  -25.3401 C.ar      1 UNK         0.0000 
     27 C27        -6.2804   15.4049  -28.1179 C.ar      1 UNK         0.0000 
     28 C28        -2.0515   18.5025  -21.9796 C.ar      1 UNK         0.0000 
     29 C29         1.0629   15.1739  -23.4863 C.ar      1 UNK         0.0000 
     30 C30         0.2469   16.9191  -22.2175 C.ar      1 UNK         0.0000 
     31 C31        -3.2890   19.3441  -21.9007 C.2       1 UNK         0.0000 
     32 C32        -3.2144   14.6814  -25.3014 C.2       1 UNK         0.0000 
     33 C33        -5.0068   16.7756  -23.7432 C.2       1 UNK         0.0000 
     34 C34        -4.8279   11.7577  -25.7727 C.2       1 UNK         0.0000 
     35 C35        -2.7900   13.2080  -25.6193 C.3       1 UNK         0.0000 
     36 C36        -5.0294   16.3921  -25.2384 C.3       1 UNK         0.0000 
     37 H37        -2.7321   12.7428  -24.6326 H         1 UNK         0.0000 
     38 H38        -4.3767   17.1010  -25.7526 H         1 UNK         0.0000 
     39 H39        -5.7306   12.1125  -30.0561 H         1 UNK         0.0000 
     40 H40        -7.9413   12.6016  -29.0647 H         1 UNK         0.0000 
     41 H41        -3.8709   13.7229  -29.8209 H         1 UNK         0.0000 
     42 H42        -8.2940   14.6972  -27.8137 H         1 UNK         0.0000 
     43 H43        -4.2188   15.8323  -28.5874 H         1 UNK         0.0000 
     44 H44         0.2354   15.1572  -26.7628 H         1 UNK         0.0000 
     45 H45        -0.5244   12.2015  -23.7276 H         1 UNK         0.0000 
     46 H46        -0.7874   20.1063  -22.7002 H         1 UNK         0.0000 
     47 H47        -2.9784   16.7007  -21.2076 H         1 UNK         0.0000 
     48 H48         1.3938   16.5496  -25.1109 H         1 UNK         0.0000 
     49 H49         0.6593   13.5880  -22.0855 H         1 UNK         0.0000 
     50 H50         1.2083   18.7045  -22.9332 H         1 UNK         0.0000 
     51 H51        -0.9861   15.3341  -21.4233 H         1 UNK         0.0000 
     52 H52        -1.3078   13.4146  -27.2201 H         1 UNK         0.0000 
     53 H53        -1.1371   11.9345  -26.3257 H         1 UNK         0.0000 
     54 H54        -4.8552   17.9597  -21.3386 H         1 UNK         0.0000 
     55 H55        -5.4596   19.4052  -22.0788 H         1 UNK         0.0000 
     56 H56        -7.4741   17.1107  -27.6487 H         1 UNK         0.0000 
     57 H57        -5.7862   17.4556  -27.6916 H         1 UNK         0.0000 
     58 H58        -6.9368   17.4465  -25.3862 H         1 UNK         0.0000 
     59 H59        -7.0678   15.7253  -25.5063 H         1 UNK         0.0000 
     60 H60        -4.5038   18.6750  -24.2506 H         1 UNK         0.0000 
     61 H61        -5.1558   14.3723  -25.8542 H         1 UNK         0.0000 
     62 H62        -3.7007   12.4164  -27.3986 H         1 UNK         0.0000 
     63 O63        -5.5217   11.0660  -26.7187 O.3       1 UNK         0.0000 
     64 C64        -6.6479   10.2034  -26.4620 C.3       1 UNK         0.0000 
     65 C65        -6.2754    9.0444  -25.5017 C.3       1 UNK         0.0000 
     66 H66        -7.0817    8.3133  -25.4304 H         1 UNK         0.0000 
     67 H67        -5.3854    8.5161  -25.8462 H         1 UNK         0.0000 
     68 H68        -6.0717    9.3923  -24.4892 H         1 UNK         0.0000 
     69 C69        -7.8512   11.0099  -25.9132 C.3       1 UNK         0.0000 
     70 H70        -7.6566   11.4175  -24.9213 H         1 UNK         0.0000 
     71 H71        -8.0951   11.8513  -26.5624 H         1 UNK         0.0000 
     72 H72        -8.7437   10.3880  -25.8357 H         1 UNK         0.0000 
     73 C73        -7.0072    9.6101  -27.8405 C.3       1 UNK         0.0000 
     74 H74        -7.2681   10.3867  -28.5591 H         1 UNK         0.0000 
     75 H75        -6.1715    9.0520  -28.2652 H         1 UNK         0.0000 
     76 H76        -7.8566    8.9287  -27.7757 H         1 UNK         0.0000 
@<TRIPOS>BOND
     1    1   23 1    
     2    1   33 am   BACKBONE|DICT|INTERRES
     3    1   60 1    
     4    2   31 2    
     5    3    6 ar   
     6    3    9 ar   
     7    3   39 1    
     8    4   36 1    
     9    4   32 am   BACKBONE|DICT|INTERRES
    10    4   61 1    
    11    5   32 2    
    12    6   40 1    
    13    6   11 ar   
    14    7   35 1    
    15    7   34 am   BACKBONE|DICT|INTERRES
    16    7   62 1    
    17    8   33 2    
    18    9   13 ar   
    19    9   41 1    
    20   10   34 2    
    21   11   42 1    
    22   11   27 ar   
    23   12   30 1    
    24   12   29 1    
    25   13   27 ar   
    26   13   43 1    
    27   14   26 ar   
    28   14   18 ar   
    29   14   44 1    
    30   15   45 1    
    31   15   19 ar   
    32   15   26 ar   
    33   16   28 ar   
    34   16   20 ar   
    35   16   46 1    
    36   17   47 1    
    37   17   21 ar   
    38   17   28 ar   
    39   18   29 ar   
    40   18   48 1    
    41   19   49 1    
    42   19   29 ar   
    43   20   30 ar   
    44   20   50 1    
    45   21   51 1    
    46   21   30 ar   
    47   22   26 1    
    48   22   35 1    
    49   22   52 1    
    50   22   53 1    
    51   23   55 1    
    52   23   54 1    
    53   23   31 1    
    54   24   56 1    
    55   24   25 1    
    56   24   27 1    
    57   24   57 1    
    58   25   36 1    
    59   25   59 1    
    60   25   58 1    
    61   28   31 1    
    62   32   35 1    
    63   33   36 1    
    64   34   63 1    
    65   35   37 1    
    66   36   38 1    
    67   63   64 1    
    68   64   65 1    
    69   64   69 1    
    70   64   73 1    
    71   65   66 1    
    72   65   68 1    
    73   65   67 1    
    74   69   72 1    
    75   69   70 1    
    76   69   71 1    
    77   73   76 1    
    78   73   74 1    
    79   73   75 1    
@<TRIPOS>SUBSTRUCTURE
     1 UNK         1 GROUP             0       ****    0 ROOT    
