@<TRIPOS>MOLECULE
Cpd4-1-MRC
76   79    1
SMALL
USER_CHARGES


@<TRIPOS>ATOM
      1 N1         -9.2779   -6.4496   -1.4561 N.am      1 ****       -0.5840 
      2 O2        -11.1879   -9.2129   -1.8746 O.2       1 ****       -0.4392 
      3 C3         -9.7551   -8.0574    5.3691 C.ar      1 ****       -0.1265 
      4 N4         -9.2076   -3.1973    0.1233 N.am      1 ****       -0.4464 
      5 O5         -8.5839   -2.6132    2.2296 O.2       1 ****       -0.4971 
      6 C6        -10.0632   -8.7130    4.1780 C.ar      1 ****       -0.1266 
      7 N7        -10.6533   -0.7965   -0.2281 N.am      1 ****       -0.4287 
      8 O8         -9.8864   -4.3718   -2.1062 O.2       1 ****       -0.4899 
      9 C9         -9.5115   -6.6848    5.3830 C.ar      1 ****       -0.1266 
     10 O10        -8.8095    0.1290   -1.2949 O.2       1 ****       -0.5584 
     11 C11       -10.1293   -7.9894    2.9897 C.ar      1 ****       -0.1208 
     12 O12       -14.6773   -4.8769    1.3398 O.3       1 ****       -0.3046 
     13 C13        -9.5779   -5.9615    4.1947 C.ar      1 ****       -0.1208 
     14 C14       -12.0287   -2.9620    2.9569 C.ar      1 ****       -0.1074 
     15 C15       -13.2503   -1.5189    1.4444 C.ar      1 ****       -0.1074 
     16 C16       -12.8551   -7.7688    0.0131 C.ar      1 ****       -0.0703 
     17 C17       -12.6131   -5.9122   -1.5178 C.ar      1 ****       -0.0703 
     18 C18       -12.9504   -3.9781    2.7298 C.ar      1 ****       -0.1371 
     19 C19       -14.1732   -2.5382    1.2198 C.ar      1 ****       -0.1371 
     20 C20       -13.7115   -7.0029    0.8047 C.ar      1 ****       -0.1474 
     21 C21       -13.4743   -5.1582   -0.7309 C.ar      1 ****       -0.1474 
     22 C22       -10.9633   -0.7819    2.2664 C.3       1 ****       -0.0899 
     23 C23       -10.0141   -7.2192   -2.4877 C.3       1 ****        0.0000 
     24 C24        -9.9612   -5.8163    1.7082 C.3       1 ****       -0.0807 
     25 C25        -8.5724   -5.4541    1.1426 C.3       1 ****       -0.1465 
     26 C26       -12.1332   -1.7635    2.2494 C.ar      1 ****       -0.0954 
     27 C27        -9.8873   -6.6134    2.9987 C.ar      1 ****       -0.0867 
     28 C28       -12.2468   -7.2031   -1.1182 C.ar      1 ****       -0.1988 
     29 C29       -13.9723   -3.7902    1.8001 C.ar      1 ****        0.1126 
     30 C30       -13.9813   -5.6802    0.4614 C.ar      1 ****        0.1480 
     31 C31       -11.2299   -7.9815   -1.8976 C.2       1 ****        0.5428 
     32 C32        -9.1835   -2.3703    1.1821 C.2       1 ****        0.5068 
     33 C33        -9.3008   -5.1150   -1.3168 C.2       1 ****        0.4913 
     34 C34        -9.9792   -0.2440   -1.2975 C.2       1 ****        0.6177 
     35 C35        -9.9858   -1.0346    1.0748 C.3       1 ****        0.0368 
     36 C36        -8.5838   -4.5056   -0.0910 C.3       1 ****        0.0493 
     37 H37        -9.2109   -0.2721    1.1931 H         1 ****        0.0942 
     38 H38        -7.5514   -4.3175   -0.3881 H         1 ****        0.0403 
     39 H39        -9.7031   -8.6189    6.2911 H         1 ****        0.1310 
     40 H40       -10.2497   -9.7775    4.1769 H         1 ****        0.1318 
     41 H41        -9.2702   -6.1842    6.3098 H         1 ****        0.1318 
     42 H42       -10.3692   -8.4978    2.0669 H         1 ****        0.1306 
     43 H43        -9.3823   -4.8977    4.1990 H         1 ****        0.1306 
     44 H44       -11.1769   -3.1530    3.5948 H         1 ****        0.1425 
     45 H45       -13.3594   -0.5783    0.9237 H         1 ****        0.1425 
     46 H46       -12.6217   -8.7798    0.3206 H         1 ****        0.1418 
     47 H47       -12.2019   -5.4533   -2.4067 H         1 ****        0.1418 
     48 H48       -12.8082   -4.9481    3.1836 H         1 ****        0.1411 
     49 H49       -14.9849   -2.3971    0.5220 H         1 ****        0.1411 
     50 H50       -14.1219   -7.4087    1.7170 H         1 ****        0.1467 
     51 H51       -13.7007   -4.1418   -1.0130 H         1 ****        0.1467 
     52 H52       -11.3461    0.2395    2.2342 H         1 ****        0.1003 
     53 H53       -10.4327   -0.8593    3.2181 H         1 ****        0.1003 
     54 H54        -9.3423   -7.9328   -2.9668 H         1 ****        0.1033 
     55 H55       -10.3724   -6.5910   -3.3054 H         1 ****        0.1033 
     56 H56       -10.5285   -4.9091    1.8944 H         1 ****        0.0688 
     57 H57       -10.5562   -6.3616    0.9777 H         1 ****        0.0688 
     58 H58        -7.9696   -5.0051    1.9323 H         1 ****        0.1001 
     59 H59        -8.0252   -6.3701    0.9189 H         1 ****        0.1001 
     60 H60        -8.7519   -6.9787   -0.7748 H         1 ****        0.3051 
     61 H61        -9.7419   -2.9124   -0.6889 H         1 ****        0.2948 
     62 H62       -11.5843   -1.1463   -0.3840 H         1 ****        0.2648 
     63 O63       -10.8161   -0.2165   -2.3504 O.3       1 ****       -0.3463 
     64 C64       -10.4509    0.1897   -3.6743 C.3       1 ****        0.3044 
     65 C65        -9.3643   -0.7319   -4.2669 C.3       1 ****       -0.2330 
     66 H66        -9.1868   -0.5149   -5.3202 H         1 ****        0.0759 
     67 H67        -8.4123   -0.6215   -3.7478 H         1 ****        0.0759 
     68 H68        -9.6520   -1.7810   -4.1866 H         1 ****        0.0759 
     69 C69       -11.7477    0.0226   -4.4815 C.3       1 ****       -0.2330 
     70 H70       -12.0981   -1.0099   -4.4579 H         1 ****        0.0759 
     71 H71       -12.5491    0.6421   -4.0776 H         1 ****        0.0759 
     72 H72       -11.6096    0.3005   -5.5266 H         1 ****        0.0759 
     73 C73       -10.0146    1.6689   -3.7204 C.3       1 ****       -0.2330 
     74 H74       -10.7611    2.3137   -3.2567 H         1 ****        0.0759 
     75 H75        -9.0755    1.8323   -3.1921 H         1 ****        0.0759 
     76 H76        -9.8718    2.0100   -4.7457 H         1 ****        0.0759 
@<TRIPOS>BOND
     1    1   60 1    
     2    1   23 1    
     3    1   33 am   BACKBONE|DICT|INTERRES
     4    2   31 2    
     5    3    6 ar   
     6    3    9 ar   
     7    3   39 1    
     8    4   61 1    
     9    4   32 am   BACKBONE|DICT|INTERRES
    10    4   36 1    
    11    5   32 2    
    12    6   11 ar   
    13    6   40 1    
    14    7   62 1    
    15    7   34 am   BACKBONE|DICT|INTERRES
    16    7   35 1    
    17    8   33 2    
    18    9   13 ar   
    19    9   41 1    
    20   10   34 2    
    21   11   27 ar   
    22   11   42 1    
    23   12   29 1    
    24   12   30 1    
    25   13   27 ar   
    26   13   43 1    
    27   14   18 ar   
    28   14   26 ar   
    29   14   44 1    
    30   15   19 ar   
    31   15   26 ar   
    32   15   45 1    
    33   16   20 ar   
    34   16   28 ar   
    35   16   46 1    
    36   17   21 ar   
    37   17   28 ar   
    38   17   47 1    
    39   18   29 ar   
    40   18   48 1    
    41   19   29 ar   
    42   19   49 1    
    43   20   30 ar   
    44   20   50 1    
    45   21   30 ar   
    46   21   51 1    
    47   22   26 1    
    48   22   35 1    
    49   22   52 1    
    50   22   53 1    
    51   23   31 1    
    52   23   54 1    
    53   23   55 1    
    54   24   25 1    
    55   24   27 1    
    56   24   56 1    
    57   24   57 1    
    58   25   36 1    
    59   25   58 1    
    60   25   59 1    
    61   28   31 1    
    62   32   35 1    
    63   33   36 1    
    64   34   63 1    
    65   35   37 1    
    66   36   38 1    
    67   63   64 1    
    68   64   65 1    
    69   64   69 1    
    70   64   73 1    
    71   65   66 1    
    72   65   67 1    
    73   65   68 1    
    74   69   70 1    
    75   69   71 1    
    76   69   72 1    
    77   73   74 1    
    78   73   75 1    
    79   73   76 1    
@<TRIPOS>SUBSTRUCTURE
     1 ****        1 GROUP             0       ****    0 ROOT    
@<TRIPOS>MOLECULE
Cpd4-2
76   79    1
SMALL
USER_CHARGES


@<TRIPOS>ATOM
      1 N1         -9.3357   -6.4546   -1.3854 N.am      1 ****       -0.5840 
      2 O2        -11.2297   -9.2174   -2.0293 O.2       1 ****       -0.4392 
      3 C3         -7.6320   -9.8384   -0.4545 C.ar      1 ****       -0.1265 
      4 N4         -9.3354   -3.1851    0.1921 N.am      1 ****       -0.4464 
      5 O5         -8.5660   -2.5271    2.2133 O.2       1 ****       -0.4971 
      6 C6         -8.8189   -9.7658    0.2719 C.ar      1 ****       -0.1266 
      7 N7        -10.5820   -0.7092   -0.2597 N.am      1 ****       -0.4287 
      8 O8         -9.9707   -4.3728   -1.9888 O.2       1 ****       -0.4899 
      9 C9         -6.6885   -8.8155   -0.3794 C.ar      1 ****       -0.1266 
     10 O10       -10.6887    1.6038   -0.0781 O.2       1 ****       -0.5584 
     11 C11        -9.0677   -8.6575    1.0772 C.ar      1 ****       -0.1208 
     12 O12       -14.5958   -4.9061    1.3524 O.3       1 ****       -0.3046 
     13 C13        -6.9371   -7.7064    0.4251 C.ar      1 ****       -0.1208 
     14 C14       -11.9244   -2.9581    2.9036 C.ar      1 ****       -0.1074 
     15 C15       -13.2010   -1.5292    1.4237 C.ar      1 ****       -0.1074 
     16 C16       -12.7994   -7.7915   -0.0166 C.ar      1 ****       -0.0703 
     17 C17       -12.6535   -5.9508   -1.5809 C.ar      1 ****       -0.0703 
     18 C18       -12.8238   -3.9945    2.6783 C.ar      1 ****       -0.1371 
     19 C19       -14.1074   -2.5652    1.2087 C.ar      1 ****       -0.1371 
     20 C20       -13.6353   -7.0286    0.7994 C.ar      1 ****       -0.1474 
     21 C21       -13.4911   -5.1987   -0.7679 C.ar      1 ****       -0.1474 
     22 C22       -10.9335   -0.7268    2.2465 C.3       1 ****       -0.0899 
     23 C23        -9.9875   -7.2134   -2.4782 C.3       1 ****        0.0000 
     24 C24        -8.4224   -6.3975    1.9964 C.3       1 ****       -0.0807 
     25 C25        -9.4403   -5.4120    1.3769 C.3       1 ****       -0.1465 
     26 C26       -12.0708   -1.7509    2.2160 C.ar      1 ****       -0.0954 
     27 C27        -8.1307   -7.6238    1.1471 C.ar      1 ****       -0.0867 
     28 C28       -12.2457   -7.2266   -1.1744 C.ar      1 ****       -0.1988 
     29 C29       -13.8759   -3.8159    1.7801 C.ar      1 ****        0.1126 
     30 C30       -13.9354   -5.7131    0.4522 C.ar      1 ****        0.1480 
     31 C31       -11.2381   -7.9859   -1.9803 C.2       1 ****        0.5428 
     32 C32        -9.2029   -2.2921    1.1856 C.2       1 ****        0.5068 
     33 C33        -9.4341   -5.1351   -1.1805 C.2       1 ****        0.4913 
     34 C34       -10.9277    0.5582   -0.6772 C.2       1 ****        0.6177 
     35 C35        -9.9271   -0.9165    1.0551 C.3       1 ****        0.0368 
     36 C36        -8.9060   -4.5825    0.1645 C.3       1 ****        0.0493 
     37 H37        -9.1247   -0.1805    1.1532 H         1 ****        0.0942 
     38 H38        -7.8153   -4.5865    0.1489 H         1 ****        0.0403 
     39 H39        -7.4416  -10.6984   -1.0812 H         1 ****        0.1310 
     40 H40        -9.5472  -10.5618    0.2020 H         1 ****        0.1318 
     41 H41        -5.7686   -8.8826   -0.9429 H         1 ****        0.1318 
     42 H42        -9.9921   -8.5978    1.6340 H         1 ****        0.1306 
     43 H43        -6.2063   -6.9114    0.4784 H         1 ****        0.1306 
     44 H44       -11.0631   -3.1285    3.5347 H         1 ****        0.1425 
     45 H45       -13.3343   -0.5880    0.9096 H         1 ****        0.1425 
     46 H46       -12.5351   -8.7954    0.2893 H         1 ****        0.1418 
     47 H47       -12.2805   -5.4998   -2.4908 H         1 ****        0.1418 
     48 H48       -12.6615   -4.9627    3.1270 H         1 ****        0.1411 
     49 H49       -14.9367   -2.4330    0.5302 H         1 ****        0.1411 
     50 H50       -14.0058   -7.4297    1.7308 H         1 ****        0.1467 
     51 H51       -13.7441   -4.1886   -1.0506 H         1 ****        0.1467 
     52 H52       -11.3541    0.2801    2.2322 H         1 ****        0.1003 
     53 H53       -10.4089   -0.7933    3.2021 H         1 ****        0.1003 
     54 H54        -9.2758   -7.9213   -2.9052 H         1 ****        0.1033 
     55 H55       -10.2891   -6.5725   -3.3085 H         1 ****        0.1033 
     56 H56        -7.4921   -5.8733    2.2247 H         1 ****        0.0688 
     57 H57        -8.7844   -6.7343    2.9695 H         1 ****        0.0688 
     58 H58       -10.3417   -5.9542    1.0822 H         1 ****        0.1001 
     59 H59        -9.7936   -4.7687    2.1798 H         1 ****        0.1001 
     60 H60        -8.8446   -6.9999   -0.6804 H         1 ****        0.3051 
     61 H61        -9.8238   -2.9379   -0.6591 H         1 ****        0.2948 
     62 H62       -11.0050   -1.4813   -0.7467 H         1 ****        0.2648 
     63 O63       -11.5886    0.4505   -1.8450 O.3       1 ****       -0.3463 
     64 C64       -12.1006    1.5548   -2.6004 C.3       1 ****        0.3044 
     65 C65       -10.9734    2.5019   -3.0624 C.3       1 ****       -0.2330 
     66 H66       -11.3476    3.2624   -3.7476 H         1 ****        0.0759 
     67 H67       -10.5110    3.0220   -2.2236 H         1 ****        0.0759 
     68 H68       -10.1836    1.9526   -3.5750 H         1 ****        0.0759 
     69 C69       -12.7377    0.8945   -3.8331 C.3       1 ****       -0.2330 
     70 H70       -12.0025    0.3235   -4.4014 H         1 ****        0.0759 
     71 H71       -13.5292    0.2009   -3.5475 H         1 ****        0.0759 
     72 H72       -13.1732    1.6337   -4.5058 H         1 ****        0.0759 
     73 C73       -13.1875    2.3226   -1.8197 C.3       1 ****       -0.2330 
     74 H74       -13.9630    1.6478   -1.4576 H         1 ****        0.0759 
     75 H75       -12.7761    2.8364   -0.9509 H         1 ****        0.0759 
     76 H76       -13.6681    3.0765   -2.4432 H         1 ****        0.0759 
@<TRIPOS>BOND
     1    1   60 1    
     2    1   23 1    
     3    1   33 am   BACKBONE|DICT|INTERRES
     4    2   31 2    
     5    3    6 ar   
     6    3    9 ar   
     7    3   39 1    
     8    4   61 1    
     9    4   32 am   BACKBONE|DICT|INTERRES
    10    4   36 1    
    11    5   32 2    
    12    6   11 ar   
    13    6   40 1    
    14    7   62 1    
    15    7   34 am   BACKBONE|DICT|INTERRES
    16    7   35 1    
    17    8   33 2    
    18    9   13 ar   
    19    9   41 1    
    20   10   34 2    
    21   11   27 ar   
    22   11   42 1    
    23   12   29 1    
    24   12   30 1    
    25   13   27 ar   
    26   13   43 1    
    27   14   18 ar   
    28   14   26 ar   
    29   14   44 1    
    30   15   19 ar   
    31   15   26 ar   
    32   15   45 1    
    33   16   20 ar   
    34   16   28 ar   
    35   16   46 1    
    36   17   21 ar   
    37   17   28 ar   
    38   17   47 1    
    39   18   29 ar   
    40   18   48 1    
    41   19   29 ar   
    42   19   49 1    
    43   20   30 ar   
    44   20   50 1    
    45   21   30 ar   
    46   21   51 1    
    47   22   26 1    
    48   22   35 1    
    49   22   52 1    
    50   22   53 1    
    51   23   31 1    
    52   23   54 1    
    53   23   55 1    
    54   24   25 1    
    55   24   27 1    
    56   24   56 1    
    57   24   57 1    
    58   25   36 1    
    59   25   58 1    
    60   25   59 1    
    61   28   31 1    
    62   32   35 1    
    63   33   36 1    
    64   34   63 1    
    65   35   37 1    
    66   36   38 1    
    67   63   64 1    
    68   64   65 1    
    69   64   69 1    
    70   64   73 1    
    71   65   66 1    
    72   65   67 1    
    73   65   68 1    
    74   69   70 1    
    75   69   71 1    
    76   69   72 1    
    77   73   74 1    
    78   73   75 1    
    79   73   76 1    
@<TRIPOS>SUBSTRUCTURE
     1 ****        1 GROUP             0       ****    0 ROOT    
@<TRIPOS>MOLECULE
Cpd4-3
76   79    1
SMALL
USER_CHARGES


@<TRIPOS>ATOM
      1 N1         -9.8852   -5.4955   -1.6103 N.am      1 ****       -0.5840 
      2 O2        -10.9801   -8.7479   -2.0566 O.2       1 ****       -0.4392 
      3 C3        -10.4818   -8.1732    5.7670 C.ar      1 ****       -0.1265 
      4 N4         -9.3108   -3.4057    0.1490 N.am      1 ****       -0.4464 
      5 O5         -8.5732   -2.3074    1.9700 O.2       1 ****       -0.4971 
      6 C6        -11.0666   -8.5255    4.5517 C.ar      1 ****       -0.1266 
      7 N7        -10.7633   -0.8197   -0.7000 N.am      1 ****       -0.4287 
      8 O8         -7.9674   -6.5015   -0.9740 O.2       1 ****       -0.4899 
      9 C9         -9.3447   -7.3676    5.8017 C.ar      1 ****       -0.1266 
     10 O10       -11.3812   -2.9570   -1.4468 O.2       1 ****       -0.5584 
     11 C11       -10.5086   -8.0676    3.3605 C.ar      1 ****       -0.1208 
     12 O12       -14.7275   -4.9835    1.5668 O.3       1 ****       -0.3046 
     13 C13        -8.7873   -6.9101    4.6099 C.ar      1 ****       -0.1208 
     14 C14       -11.9789   -2.8912    2.7325 C.ar      1 ****       -0.1074 
     15 C15       -13.4249   -1.5869    1.2931 C.ar      1 ****       -0.1074 
     16 C16       -12.6883   -7.6192    0.0542 C.ar      1 ****       -0.0703 
     17 C17       -13.0502   -5.8514   -1.5610 C.ar      1 ****       -0.0703 
     18 C18       -12.8808   -3.9478    2.6818 C.ar      1 ****       -0.1371 
     19 C19       -14.3351   -2.6404    1.2579 C.ar      1 ****       -0.1371 
     20 C20       -13.5515   -6.9787    0.9440 C.ar      1 ****       -0.1474 
     21 C21       -13.9261   -5.2327   -0.6815 C.ar      1 ****       -0.1474 
     22 C22       -11.1025   -0.7095    1.8084 C.3       1 ****       -0.0899 
     23 C23       -10.2867   -6.5074   -2.6202 C.3       1 ****        0.0000 
     24 C24        -8.7669   -6.7511    2.0881 C.3       1 ****       -0.0807 
     25 C25        -9.3574   -5.3878    1.6684 C.3       1 ****       -0.1465 
     26 C26       -12.2147   -1.7414    1.9739 C.ar      1 ****       -0.0954 
     27 C27        -9.3687   -7.2605    3.3888 C.ar      1 ****       -0.0867 
     28 C28       -12.3658   -7.0055   -1.1639 C.ar      1 ****       -0.1988 
     29 C29       -14.0213   -3.8465    1.8852 C.ar      1 ****        0.1126 
     30 C30       -14.1136   -5.7501    0.6013 C.ar      1 ****        0.1480 
     31 C31       -11.2699   -7.5510   -2.0233 C.2       1 ****        0.5428 
     32 C32        -9.2671   -2.3388    0.9526 C.2       1 ****        0.5068 
     33 C33        -8.8243   -5.6400   -0.7988 C.2       1 ****        0.4913 
     34 C34       -11.2808   -1.7397   -1.5935 C.2       1 ****        0.6177 
     35 C35       -10.1440   -1.0823    0.6318 C.3       1 ****        0.0368 
     36 C36        -8.7147   -4.7133    0.4252 C.3       1 ****        0.0493 
     37 H37        -9.3648   -0.3184    0.6411 H         1 ****        0.0942 
     38 H38        -7.6519   -4.5576    0.6197 H         1 ****        0.0403 
     39 H39       -10.9139   -8.5287    6.6917 H         1 ****        0.1310 
     40 H40       -11.9471   -9.1516    4.5341 H         1 ****        0.1318 
     41 H41        -8.8977   -7.0985    6.7480 H         1 ****        0.1318 
     42 H42       -10.9588   -8.3395    2.4177 H         1 ****        0.1306 
     43 H43        -7.9081   -6.2821    4.6354 H         1 ****        0.1306 
     44 H44       -11.0530   -3.0121    3.2777 H         1 ****        0.1425 
     45 H45       -13.6224   -0.6943    0.7179 H         1 ****        0.1425 
     46 H46       -12.2008   -8.5371    0.3550 H         1 ****        0.1418 
     47 H47       -12.8555   -5.3730   -2.5104 H         1 ****        0.1418 
     48 H48       -12.6468   -4.8827    3.1693 H         1 ****        0.1411 
     49 H49       -15.2264   -2.5685    0.6536 H         1 ****        0.1411 
     50 H50       -13.7188   -7.3832    1.9309 H         1 ****        0.1467 
     51 H51       -14.3771   -4.2909   -0.9507 H         1 ****        0.1467 
     52 H52       -11.5369    0.2791    1.6534 H         1 ****        0.1003 
     53 H53       -10.5499   -0.6330    2.7478 H         1 ****        0.1003 
     54 H54        -9.4229   -7.0356   -3.0319 H         1 ****        0.1033 
     55 H55       -10.7605   -6.0198   -3.4709 H         1 ****        0.1033 
     56 H56        -8.9237   -7.5036    1.3130 H         1 ****        0.0688 
     57 H57        -7.6829   -6.6787    2.1928 H         1 ****        0.0688 
     58 H58       -10.4330   -5.4959    1.5147 H         1 ****        0.1001 
     59 H59        -9.2697   -4.7207    2.5257 H         1 ****        0.1001 
     60 H60       -10.5447   -4.7449   -1.4176 H         1 ****        0.3051 
     61 H61        -9.9667   -3.3604   -0.6285 H         1 ****        0.2948 
     62 H62       -10.7065    0.1222   -1.0518 H         1 ****        0.2648 
     63 O63       -11.6552   -1.0591   -2.6908 O.3       1 ****       -0.3463 
     64 C64       -12.2461   -1.6359   -3.8604 C.3       1 ****        0.3044 
     65 C65       -12.4330   -0.4392   -4.8054 C.3       1 ****       -0.2330 
     66 H66       -12.8869   -0.7395   -5.7501 H         1 ****        0.0759 
     67 H67       -13.0732    0.3232   -4.3601 H         1 ****        0.0759 
     68 H68       -11.4799    0.0386   -5.0348 H         1 ****        0.0759 
     69 C69       -11.3122   -2.6657   -4.5308 C.3       1 ****       -0.2330 
     70 H70       -10.3235   -2.2416   -4.7075 H         1 ****        0.0759 
     71 H71       -11.1750   -3.5543   -3.9168 H         1 ****        0.0759 
     72 H72       -11.7072   -2.9937   -5.4924 H         1 ****        0.0759 
     73 C73       -13.6237   -2.2516   -3.5453 C.3       1 ****       -0.2330 
     74 H74       -13.5404   -3.1084   -2.8804 H         1 ****        0.0759 
     75 H75       -14.2745   -1.5278   -3.0543 H         1 ****        0.0759 
     76 H76       -14.1269   -2.5887   -4.4517 H         1 ****        0.0759 
@<TRIPOS>BOND
     1    1   60 1    
     2    1   23 1    
     3    1   33 am   BACKBONE|DICT|INTERRES
     4    2   31 2    
     5    3    6 ar   
     6    3    9 ar   
     7    3   39 1    
     8    4   61 1    
     9    4   32 am   BACKBONE|DICT|INTERRES
    10    4   36 1    
    11    5   32 2    
    12    6   11 ar   
    13    6   40 1    
    14    7   62 1    
    15    7   34 am   BACKBONE|DICT|INTERRES
    16    7   35 1    
    17    8   33 2    
    18    9   13 ar   
    19    9   41 1    
    20   10   34 2    
    21   11   27 ar   
    22   11   42 1    
    23   12   29 1    
    24   12   30 1    
    25   13   27 ar   
    26   13   43 1    
    27   14   18 ar   
    28   14   26 ar   
    29   14   44 1    
    30   15   19 ar   
    31   15   26 ar   
    32   15   45 1    
    33   16   20 ar   
    34   16   28 ar   
    35   16   46 1    
    36   17   21 ar   
    37   17   28 ar   
    38   17   47 1    
    39   18   29 ar   
    40   18   48 1    
    41   19   29 ar   
    42   19   49 1    
    43   20   30 ar   
    44   20   50 1    
    45   21   30 ar   
    46   21   51 1    
    47   22   26 1    
    48   22   35 1    
    49   22   52 1    
    50   22   53 1    
    51   23   31 1    
    52   23   54 1    
    53   23   55 1    
    54   24   25 1    
    55   24   27 1    
    56   24   56 1    
    57   24   57 1    
    58   25   36 1    
    59   25   58 1    
    60   25   59 1    
    61   28   31 1    
    62   32   35 1    
    63   33   36 1    
    64   34   63 1    
    65   35   37 1    
    66   36   38 1    
    67   63   64 1    
    68   64   65 1    
    69   64   69 1    
    70   64   73 1    
    71   65   66 1    
    72   65   67 1    
    73   65   68 1    
    74   69   70 1    
    75   69   71 1    
    76   69   72 1    
    77   73   74 1    
    78   73   75 1    
    79   73   76 1    
@<TRIPOS>SUBSTRUCTURE
     1 ****        1 GROUP             0       ****    0 ROOT    
@<TRIPOS>MOLECULE
Cpd4-4
76   79    1
SMALL
USER_CHARGES


@<TRIPOS>ATOM
      1 N1         -9.5604   -6.0447   -1.8132 N.am      1 ****       -0.5840 
      2 O2        -11.7137   -8.2543   -3.2655 O.2       1 ****       -0.4392 
      3 C3        -10.0532   -3.2723   -5.8160 C.ar      1 ****       -0.1265 
      4 N4         -9.1068   -3.3859    0.5800 N.am      1 ****       -0.4464 
      5 O5         -9.2404   -1.1903    0.0356 O.2       1 ****       -0.4971 
      6 C6         -9.7374   -2.2856   -4.8845 C.ar      1 ****       -0.1266 
      7 N7         -8.3626   -0.8968    2.8250 N.am      1 ****       -0.4287 
      8 O8         -8.9737   -6.0400    0.3772 O.2       1 ****       -0.4899 
      9 C9         -9.4362   -4.5204   -5.7641 C.ar      1 ****       -0.1266 
     10 O10        -8.7407   -1.2109    5.0940 O.2       1 ****       -0.5584 
     11 C11        -8.7991   -2.5502   -3.8902 C.ar      1 ****       -0.1208 
     12 O12       -14.6988   -4.8821    1.3042 O.3       1 ****       -0.3046 
     13 C13        -8.4989   -4.7851   -4.7686 C.ar      1 ****       -0.1208 
     14 C14       -12.6409   -1.8740    1.0327 C.ar      1 ****       -0.1074 
     15 C15       -12.4735   -2.7639    3.2808 C.ar      1 ****       -0.1074 
     16 C16       -12.0299   -7.0996    0.1393 C.ar      1 ****       -0.0703 
     17 C17       -13.5539   -6.6463   -1.6870 C.ar      1 ****       -0.0703 
     18 C18       -13.6037   -2.8296    0.7292 C.ar      1 ****       -0.1371 
     19 C19       -13.4414   -3.7179    2.9746 C.ar      1 ****       -0.1371 
     20 C20       -12.8675   -6.4087    1.0040 C.ar      1 ****       -0.1474 
     21 C21       -14.3868   -5.9458   -0.8156 C.ar      1 ****       -0.1474 
     22 C22       -10.8457   -0.9684    2.5574 C.3       1 ****       -0.0899 
     23 C23        -9.8537   -7.4902   -1.9647 C.3       1 ****        0.0000 
     24 C24        -7.1554   -4.1181   -2.7361 C.3       1 ****       -0.0807 
     25 C25        -7.4912   -3.5896   -1.3175 C.3       1 ****       -0.1465 
     26 C26       -12.0386   -1.8772    2.2920 C.ar      1 ****       -0.0954 
     27 C27        -8.1839   -3.8053   -3.8220 C.ar      1 ****       -0.0867 
     28 C28       -12.3324   -7.1596   -1.2269 C.ar      1 ****       -0.1988 
     29 C29       -13.9593   -3.7860    1.6821 C.ar      1 ****        0.1126 
     30 C30       -14.0106   -5.7743    0.5145 C.ar      1 ****        0.1480 
     31 C31       -11.3613   -7.7677   -2.1892 C.2       1 ****        0.5428 
     32 C32        -9.2629   -2.0883    0.8806 C.2       1 ****        0.5068 
     33 C33        -9.1529   -5.4452   -0.6858 C.2       1 ****        0.4913 
     34 C34        -8.1143   -0.7022    4.1669 C.2       1 ****        0.6177 
     35 C35        -9.4919   -1.7288    2.3740 C.3       1 ****        0.0368 
     36 C36        -8.9007   -3.9311   -0.7589 C.3       1 ****        0.0493 
     37 H37        -9.5124   -2.6521    2.9599 H         1 ****        0.0942 
     38 H38        -9.6676   -3.5000   -1.4049 H         1 ****        0.0403 
     39 H39       -10.7803   -3.0660   -6.5886 H         1 ****        0.1310 
     40 H40       -10.2169   -1.3182   -4.9328 H         1 ****        0.1318 
     41 H41        -9.6823   -5.2783   -6.4944 H         1 ****        0.1318 
     42 H42        -8.5619   -1.7779   -3.1720 H         1 ****        0.1306 
     43 H43        -8.0196   -5.7535   -4.7375 H         1 ****        0.1306 
     44 H44       -12.3099   -1.1881    0.2650 H         1 ****        0.1425 
     45 H45       -12.0181   -2.7585    4.2615 H         1 ****        0.1425 
     46 H46       -11.1176   -7.5202    0.5401 H         1 ****        0.1418 
     47 H47       -13.8279   -6.7196   -2.7315 H         1 ****        0.1418 
     48 H48       -14.0105   -2.8906   -0.2688 H         1 ****        0.1411 
     49 H49       -13.7299   -4.4577    3.7060 H         1 ****        0.1411 
     50 H50       -12.5885   -6.2898    2.0398 H         1 ****        0.1467 
     51 H51       -15.2840   -5.4693   -1.1808 H         1 ****        0.1467 
     52 H52       -10.8892   -0.0845    1.9172 H         1 ****        0.1003 
     53 H53       -10.9361   -0.5842    3.5751 H         1 ****        0.1003 
     54 H54        -9.5303   -8.0753   -1.1018 H         1 ****        0.1033 
     55 H55        -9.2857   -7.8945   -2.8036 H         1 ****        0.1033 
     56 H56        -6.2037   -3.6948   -3.0609 H         1 ****        0.0688 
     57 H57        -6.9919   -5.1962   -2.6830 H         1 ****        0.0688 
     58 H58        -6.7430   -3.9673   -0.6190 H         1 ****        0.1001 
     59 H59        -7.3799   -2.5052   -1.3216 H         1 ****        0.1001 
     60 H60        -9.6430   -5.4586   -2.6372 H         1 ****        0.3051 
     61 H61        -9.1677   -4.1016    1.2934 H         1 ****        0.2948 
     62 H62        -7.8527   -0.3405    2.1570 H         1 ****        0.2648 
     63 O63        -7.0734    0.1436    4.2862 O.3       1 ****       -0.3463 
     64 C64        -6.5168    0.5870    5.5290 C.3       1 ****        0.3044 
     65 C65        -5.9376   -0.5877    6.3449 C.3       1 ****       -0.2330 
     66 H66        -5.3973   -0.2347    7.2231 H         1 ****        0.0759 
     67 H67        -6.7188   -1.2622    6.6952 H         1 ****        0.0759 
     68 H68        -5.2464   -1.1797    5.7452 H         1 ****        0.0759 
     69 C69        -5.3709    1.5195    5.1062 C.3       1 ****       -0.2330 
     70 H70        -4.6343    0.9922    4.4991 H         1 ****        0.0759 
     71 H71        -5.7388    2.3541    4.5087 H         1 ****        0.0759 
     72 H72        -4.8510    1.9351    5.9695 H         1 ****        0.0759 
     73 C73        -7.5411    1.3894    6.3586 C.3       1 ****       -0.2330 
     74 H74        -7.9823    2.1924    5.7683 H         1 ****        0.0759 
     75 H75        -8.3595    0.7613    6.7100 H         1 ****        0.0759 
     76 H76        -7.0780    1.8386    7.2370 H         1 ****        0.0759 
@<TRIPOS>BOND
     1    1   60 1    
     2    1   23 1    
     3    1   33 am   BACKBONE|DICT|INTERRES
     4    2   31 2    
     5    3    6 ar   
     6    3    9 ar   
     7    3   39 1    
     8    4   61 1    
     9    4   32 am   BACKBONE|DICT|INTERRES
    10    4   36 1    
    11    5   32 2    
    12    6   11 ar   
    13    6   40 1    
    14    7   62 1    
    15    7   34 am   BACKBONE|DICT|INTERRES
    16    7   35 1    
    17    8   33 2    
    18    9   13 ar   
    19    9   41 1    
    20   10   34 2    
    21   11   27 ar   
    22   11   42 1    
    23   12   29 1    
    24   12   30 1    
    25   13   27 ar   
    26   13   43 1    
    27   14   18 ar   
    28   14   26 ar   
    29   14   44 1    
    30   15   19 ar   
    31   15   26 ar   
    32   15   45 1    
    33   16   20 ar   
    34   16   28 ar   
    35   16   46 1    
    36   17   21 ar   
    37   17   28 ar   
    38   17   47 1    
    39   18   29 ar   
    40   18   48 1    
    41   19   29 ar   
    42   19   49 1    
    43   20   30 ar   
    44   20   50 1    
    45   21   30 ar   
    46   21   51 1    
    47   22   26 1    
    48   22   35 1    
    49   22   52 1    
    50   22   53 1    
    51   23   31 1    
    52   23   54 1    
    53   23   55 1    
    54   24   25 1    
    55   24   27 1    
    56   24   56 1    
    57   24   57 1    
    58   25   36 1    
    59   25   58 1    
    60   25   59 1    
    61   28   31 1    
    62   32   35 1    
    63   33   36 1    
    64   34   63 1    
    65   35   37 1    
    66   36   38 1    
    67   63   64 1    
    68   64   65 1    
    69   64   69 1    
    70   64   73 1    
    71   65   66 1    
    72   65   67 1    
    73   65   68 1    
    74   69   70 1    
    75   69   71 1    
    76   69   72 1    
    77   73   74 1    
    78   73   75 1    
    79   73   76 1    
@<TRIPOS>SUBSTRUCTURE
     1 ****        1 GROUP             0       ****    0 ROOT    
@<TRIPOS>MOLECULE
Cpd4-5-MEC
76   79    1
SMALL
USER_CHARGES


@<TRIPOS>ATOM
      1 N1         -9.5444   -6.0599   -1.8201 N.am      1 ****       -0.5840 
      2 O2        -11.6991   -8.2626   -3.2668 O.2       1 ****       -0.4392 
      3 C3         -2.6329   -3.0050   -2.4371 C.ar      1 ****       -0.1265 
      4 N4         -9.1323   -3.3733    0.5812 N.am      1 ****       -0.4464 
      5 O5         -9.2519   -1.1798    0.0265 O.2       1 ****       -0.4971 
      6 C6         -3.1722   -4.2759   -2.6300 C.ar      1 ****       -0.1266 
      7 N7         -8.3510   -0.8583    2.7969 N.am      1 ****       -0.4287 
      8 O8         -9.0652   -6.0276    0.3971 O.2       1 ****       -0.4899 
      9 C9         -3.2868   -2.0694   -1.6370 C.ar      1 ****       -0.1266 
     10 O10        -8.6889   -1.1592    5.0737 O.2       1 ****       -0.5584 
     11 C11        -4.3764   -4.6144   -2.0169 C.ar      1 ****       -0.1208 
     12 O12       -14.6837   -4.8791    1.2959 O.3       1 ****       -0.3046 
     13 C13        -4.4906   -2.4082   -1.0237 C.ar      1 ****       -0.1208 
     14 C14       -12.6381   -1.8598    1.0457 C.ar      1 ****       -0.1074 
     15 C15       -12.4445   -2.7797    3.2795 C.ar      1 ****       -0.1074 
     16 C16       -12.0416   -7.1334    0.1404 C.ar      1 ****       -0.0703 
     17 C17       -13.5276   -6.6249   -1.7024 C.ar      1 ****       -0.0703 
     18 C18       -13.5971   -2.8178    0.7371 C.ar      1 ****       -0.1371 
     19 C19       -13.4088   -3.7358    2.9683 C.ar      1 ****       -0.1371 
     20 C20       -12.8770   -6.4351    1.0016 C.ar      1 ****       -0.1474 
     21 C21       -14.3592   -5.9188   -0.8341 C.ar      1 ****       -0.1474 
     22 C22       -10.8374   -0.9599    2.5687 C.3       1 ****       -0.0899 
     23 C23        -9.8424   -7.5076   -1.9550 C.3       1 ****        0.0000 
     24 C24        -6.3526   -4.0464   -0.5462 C.3       1 ****       -0.0807 
     25 C25        -7.5768   -3.5972   -1.3756 C.3       1 ****       -0.1465 
     26 C26       -12.0251   -1.8755    2.3000 C.ar      1 ****       -0.0954 
     27 C27        -5.0356   -3.6810   -1.2126 C.ar      1 ****       -0.0867 
     28 C28       -12.3237   -7.1684   -1.2308 C.ar      1 ****       -0.1988 
     29 C29       -13.9393   -3.7888    1.6800 C.ar      1 ****        0.1126 
     30 C30       -13.9996   -5.7719    0.5036 C.ar      1 ****        0.1480 
     31 C31       -11.3503   -7.7833   -2.1862 C.2       1 ****        0.5428 
     32 C32        -9.2685   -2.0730    0.8763 C.2       1 ****        0.5068 
     33 C33        -9.1993   -5.4450   -0.6793 C.2       1 ****        0.4913 
     34 C34        -8.0823   -0.6519    4.1328 C.2       1 ****        0.6177 
     35 C35        -9.4778   -1.7060    2.3703 C.3       1 ****        0.0368 
     36 C36        -8.9567   -3.9304   -0.7568 C.3       1 ****        0.0493 
     37 H37        -9.4788   -2.6252    2.9628 H         1 ****        0.0942 
     38 H38        -9.7370   -3.5094   -1.3943 H         1 ****        0.0403 
     39 H39        -1.6987   -2.7424   -2.9128 H         1 ****        0.1310 
     40 H40        -2.6589   -4.9952   -3.2521 H         1 ****        0.1318 
     41 H41        -2.8627   -1.0859   -1.4935 H         1 ****        0.1318 
     42 H42        -4.7947   -5.5993   -2.1674 H         1 ****        0.1306 
     43 H43        -5.0003   -1.6827   -0.4058 H         1 ****        0.1306 
     44 H44       -12.3195   -1.1601    0.2854 H         1 ****        0.1425 
     45 H45       -11.9812   -2.7845    4.2565 H         1 ****        0.1425 
     46 H46       -11.1447   -7.5788    0.5491 H         1 ****        0.1418 
     47 H47       -13.7882   -6.6805   -2.7514 H         1 ****        0.1418 
     48 H48       -14.0147   -2.8663   -0.2571 H         1 ****        0.1411 
     49 H49       -13.6875   -4.4863    3.6924 H         1 ****        0.1411 
     50 H50       -12.6116   -6.3353    2.0429 H         1 ****        0.1467 
     51 H51       -15.2421   -5.4211   -1.2057 H         1 ****        0.1467 
     52 H52       -10.8912   -0.0710    1.9362 H         1 ****        0.1003 
     53 H53       -10.9243   -0.5855    3.5903 H         1 ****        0.1003 
     54 H54        -9.5266   -8.0831   -1.0827 H         1 ****        0.1033 
     55 H55        -9.2701   -7.9278   -2.7832 H         1 ****        0.1033 
     56 H56        -6.3793   -3.5964    0.4477 H         1 ****        0.0688 
     57 H57        -6.3768   -5.1223   -0.3647 H         1 ****        0.0688 
     58 H58        -7.5112   -2.5233   -1.5581 H         1 ****        0.1001 
     59 H59        -7.5070   -4.0363   -2.3720 H         1 ****        0.1001 
     60 H60        -9.6126   -5.4942   -2.6552 H         1 ****        0.3051 
     61 H61        -9.1878   -4.0841    1.2999 H         1 ****        0.2948 
     62 H62        -7.8577   -0.3022    2.1163 H         1 ****        0.2648 
     63 O63        -7.0469    0.2034    4.2284 O.3       1 ****       -0.3463 
     64 C64        -6.4745    0.6617    5.4585 C.3       1 ****        0.3044 
     65 C65        -5.3423    1.5990    5.0099 C.3       1 ****       -0.2330 
     66 H66        -4.8122    2.0259    5.8615 H         1 ****        0.0759 
     67 H67        -4.6112    1.0719    4.3960 H         1 ****        0.0759 
     68 H68        -5.7257    2.4257    4.4110 H         1 ****        0.0759 
     69 C69        -7.4926    1.4633    6.2962 C.3       1 ****       -0.2330 
     70 H70        -7.9488    2.2579    5.7057 H         1 ****        0.0759 
     71 H71        -8.3008    0.8320    6.6651 H         1 ****        0.0759 
     72 H72        -7.0200    1.9237    7.1637 H         1 ****        0.0759 
     73 C73        -5.8737   -0.5012    6.2757 C.3       1 ****       -0.2330 
     74 H74        -6.6442   -1.1778    6.6451 H         1 ****        0.0759 
     75 H75        -5.1883   -1.0942    5.6702 H         1 ****        0.0759 
     76 H76        -5.3215   -0.1362    7.1416 H         1 ****        0.0759 
@<TRIPOS>BOND
     1    1   60 1    
     2    1   23 1    
     3    1   33 am   BACKBONE|DICT|INTERRES
     4    2   31 2    
     5    3    6 ar   
     6    3    9 ar   
     7    3   39 1    
     8    4   61 1    
     9    4   32 am   BACKBONE|DICT|INTERRES
    10    4   36 1    
    11    5   32 2    
    12    6   11 ar   
    13    6   40 1    
    14    7   62 1    
    15    7   34 am   BACKBONE|DICT|INTERRES
    16    7   35 1    
    17    8   33 2    
    18    9   13 ar   
    19    9   41 1    
    20   10   34 2    
    21   11   27 ar   
    22   11   42 1    
    23   12   29 1    
    24   12   30 1    
    25   13   27 ar   
    26   13   43 1    
    27   14   18 ar   
    28   14   26 ar   
    29   14   44 1    
    30   15   19 ar   
    31   15   26 ar   
    32   15   45 1    
    33   16   20 ar   
    34   16   28 ar   
    35   16   46 1    
    36   17   21 ar   
    37   17   28 ar   
    38   17   47 1    
    39   18   29 ar   
    40   18   48 1    
    41   19   29 ar   
    42   19   49 1    
    43   20   30 ar   
    44   20   50 1    
    45   21   30 ar   
    46   21   51 1    
    47   22   26 1    
    48   22   35 1    
    49   22   52 1    
    50   22   53 1    
    51   23   31 1    
    52   23   54 1    
    53   23   55 1    
    54   24   25 1    
    55   24   27 1    
    56   24   56 1    
    57   24   57 1    
    58   25   36 1    
    59   25   58 1    
    60   25   59 1    
    61   28   31 1    
    62   32   35 1    
    63   33   36 1    
    64   34   63 1    
    65   35   37 1    
    66   36   38 1    
    67   63   64 1    
    68   64   65 1    
    69   64   69 1    
    70   64   73 1    
    71   65   66 1    
    72   65   67 1    
    73   65   68 1    
    74   69   70 1    
    75   69   71 1    
    76   69   72 1    
    77   73   74 1    
    78   73   75 1    
    79   73   76 1    
@<TRIPOS>SUBSTRUCTURE
     1 ****        1 GROUP             0       ****    0 ROOT    
@<TRIPOS>MOLECULE
Cpd4-6
76   79    1
SMALL
USER_CHARGES


@<TRIPOS>ATOM
      1 N1         -9.2176   -6.7865   -0.7730 N.am      1 ****       -0.5840 
      2 O2        -11.5467   -7.7209   -3.3457 O.2       1 ****       -0.4392 
      3 C3         -8.9761   -6.7305    6.3785 C.ar      1 ****       -0.1265 
      4 N4         -9.2062   -3.3162    0.1652 N.am      1 ****       -0.4464 
      5 O5         -8.5793   -2.3541    2.1281 O.2       1 ****       -0.4971 
      6 C6         -9.3095   -7.7133    5.4479 C.ar      1 ****       -0.1266 
      7 N7        -10.7482   -1.0631   -0.5613 N.am      1 ****       -0.4287 
      8 O8         -9.7063   -4.8850   -1.8994 O.2       1 ****       -0.4899 
      9 C9         -8.8499   -5.3976    5.9906 C.ar      1 ****       -0.1266 
     10 O10        -8.9489   -0.1941   -1.7461 O.2       1 ****       -0.5584 
     11 C11        -9.5193   -7.3607    4.1167 C.ar      1 ****       -0.1208 
     12 O12       -14.6142   -5.0489    1.6084 O.3       1 ****       -0.3046 
     13 C13        -9.0616   -5.0447    4.6602 C.ar      1 ****       -0.1208 
     14 C14       -12.0500   -2.8028    2.9104 C.ar      1 ****       -0.1074 
     15 C15       -13.3138   -1.6631    1.1883 C.ar      1 ****       -0.1074 
     16 C16       -12.1740   -7.3827    0.2012 C.ar      1 ****       -0.0703 
     17 C17       -13.2888   -6.2091   -1.5972 C.ar      1 ****       -0.0703 
     18 C18       -12.9278   -3.8798    2.8410 C.ar      1 ****       -0.1371 
     19 C19       -14.1882   -2.7445    1.1176 C.ar      1 ****       -0.1371 
     20 C20       -13.0211   -6.7708    1.1218 C.ar      1 ****       -0.1474 
     21 C21       -14.1337   -5.6003   -0.6734 C.ar      1 ****       -0.1474 
     22 C22       -11.0807   -0.6976    1.9061 C.3       1 ****       -0.0899 
     23 C23        -9.7872   -7.7880   -1.7182 C.3       1 ****        0.0000 
     24 C24        -9.6289   -5.6267    2.2754 C.3       1 ****       -0.0807 
     25 C25        -8.3226   -5.3052    1.5198 C.3       1 ****       -0.1465 
     26 C26       -12.1988   -1.7304    2.0288 C.ar      1 ****       -0.0954 
     27 C27        -9.3960   -6.0255    3.7231 C.ar      1 ****       -0.0867 
     28 C28       -12.2564   -7.0486   -1.1575 C.ar      1 ****       -0.1988 
     29 C29       -13.9485   -3.8806    1.8908 C.ar      1 ****        0.1126 
     30 C30       -13.9595   -5.8350    0.6897 C.ar      1 ****        0.1480 
     31 C31       -11.2687   -7.5791   -2.1527 C.2       1 ****        0.5428 
     32 C32        -9.2086   -2.3227    1.0704 C.2       1 ****        0.5068 
     33 C33        -9.1976   -5.4513   -0.9327 C.2       1 ****        0.4913 
     34 C34       -10.0932   -0.6371   -1.6986 C.2       1 ****        0.6177 
     35 C35       -10.0823   -1.0666    0.7639 C.3       1 ****        0.0368 
     36 C36        -8.4943   -4.5959    0.1451 C.3       1 ****        0.0493 
     37 H37        -9.3527   -0.2518    0.7686 H         1 ****        0.0942 
     38 H38        -7.4970   -4.3835   -0.2422 H         1 ****        0.0403 
     39 H39        -8.8119   -7.0046    7.4110 H         1 ****        0.1310 
     40 H40        -9.4038   -8.7442    5.7582 H         1 ****        0.1318 
     41 H41        -8.5878   -4.6415    6.7168 H         1 ****        0.1318 
     42 H42        -9.7771   -8.1250    3.3986 H         1 ****        0.1306 
     43 H43        -8.9585   -4.0122    4.3535 H         1 ****        0.1306 
     44 H44       -11.2004   -2.8541    3.5772 H         1 ****        0.1425 
     45 H45       -13.4570   -0.8196    0.5282 H         1 ****        0.1425 
     46 H46       -11.4213   -8.0673    0.5648 H         1 ****        0.1418 
     47 H47       -13.3952   -5.9656   -2.6465 H         1 ****        0.1418 
     48 H48       -12.7555   -4.7557    3.4480 H         1 ****        0.1411 
     49 H49       -14.9957   -2.7457    0.4015 H         1 ****        0.1411 
     50 H50       -12.9065   -6.9597    2.1785 H         1 ****        0.1467 
     51 H51       -14.8736   -4.8874   -1.0026 H         1 ****        0.1467 
     52 H52       -11.5153    0.2872    1.7269 H         1 ****        0.1003 
     53 H53       -10.5550   -0.6097    2.8596 H         1 ****        0.1003 
     54 H54        -9.7226   -8.7830   -1.2791 H         1 ****        0.1033 
     55 H55        -9.1687   -7.8033   -2.6180 H         1 ****        0.1033 
     56 H56       -10.2936   -4.7662    2.2615 H         1 ****        0.0688 
     57 H57       -10.1832   -6.4111    1.7671 H         1 ****        0.0688 
     58 H58        -7.6924   -4.6762    2.1494 H         1 ****        0.1001 
     59 H59        -7.7264   -6.2123    1.4185 H         1 ****        0.1001 
     60 H60        -8.7271   -7.1441    0.0338 H         1 ****        0.3051 
     61 H61        -9.7667   -3.1976   -0.6704 H         1 ****        0.2948 
     62 H62       -11.6495   -1.4989   -0.6693 H         1 ****        0.2648 
     63 O63       -10.9135   -0.8229   -2.7483 O.3       1 ****       -0.3463 
     64 C64       -10.5486   -0.6155   -4.1174 C.3       1 ****        0.3044 
     65 C65       -11.8202   -0.9846   -4.8971 C.3       1 ****       -0.2330 
     66 H66       -11.6801   -0.8709   -5.9722 H         1 ****        0.0759 
     67 H67       -12.1123   -2.0186   -4.7098 H         1 ****        0.0759 
     68 H68       -12.6618   -0.3559   -4.6045 H         1 ****        0.0759 
     69 C69       -10.1936    0.8594   -4.3987 C.3       1 ****       -0.2330 
     70 H70       -10.9817    1.5268   -4.0504 H         1 ****        0.0759 
     71 H71        -9.2734    1.1585   -3.8973 H         1 ****        0.0759 
     72 H72       -10.0533    1.0385   -5.4647 H         1 ****        0.0759 
     73 C73        -9.4030   -1.5571   -4.5444 C.3       1 ****       -0.2330 
     74 H74        -8.4675   -1.3104   -4.0424 H         1 ****        0.0759 
     75 H75        -9.6340   -2.5941   -4.2970 H         1 ****        0.0759 
     76 H76        -9.2200   -1.5039   -5.6173 H         1 ****        0.0759 
@<TRIPOS>BOND
     1    1   60 1    
     2    1   23 1    
     3    1   33 am   BACKBONE|DICT|INTERRES
     4    2   31 2    
     5    3    6 ar   
     6    3    9 ar   
     7    3   39 1    
     8    4   61 1    
     9    4   32 am   BACKBONE|DICT|INTERRES
    10    4   36 1    
    11    5   32 2    
    12    6   11 ar   
    13    6   40 1    
    14    7   62 1    
    15    7   34 am   BACKBONE|DICT|INTERRES
    16    7   35 1    
    17    8   33 2    
    18    9   13 ar   
    19    9   41 1    
    20   10   34 2    
    21   11   27 ar   
    22   11   42 1    
    23   12   29 1    
    24   12   30 1    
    25   13   27 ar   
    26   13   43 1    
    27   14   18 ar   
    28   14   26 ar   
    29   14   44 1    
    30   15   19 ar   
    31   15   26 ar   
    32   15   45 1    
    33   16   20 ar   
    34   16   28 ar   
    35   16   46 1    
    36   17   21 ar   
    37   17   28 ar   
    38   17   47 1    
    39   18   29 ar   
    40   18   48 1    
    41   19   29 ar   
    42   19   49 1    
    43   20   30 ar   
    44   20   50 1    
    45   21   30 ar   
    46   21   51 1    
    47   22   26 1    
    48   22   35 1    
    49   22   52 1    
    50   22   53 1    
    51   23   31 1    
    52   23   54 1    
    53   23   55 1    
    54   24   25 1    
    55   24   27 1    
    56   24   56 1    
    57   24   57 1    
    58   25   36 1    
    59   25   58 1    
    60   25   59 1    
    61   28   31 1    
    62   32   35 1    
    63   33   36 1    
    64   34   63 1    
    65   35   37 1    
    66   36   38 1    
    67   63   64 1    
    68   64   65 1    
    69   64   69 1    
    70   64   73 1    
    71   65   66 1    
    72   65   67 1    
    73   65   68 1    
    74   69   70 1    
    75   69   71 1    
    76   69   72 1    
    77   73   74 1    
    78   73   75 1    
    79   73   76 1    
@<TRIPOS>SUBSTRUCTURE
     1 ****        1 GROUP             0       ****    0 ROOT    
@<TRIPOS>MOLECULE
Cpd4-7
76   79    1
SMALL
USER_CHARGES


@<TRIPOS>ATOM
      1 N1         -9.5230   -6.0663   -1.8196 N.am      1 ****       -0.5840 
      2 O2        -11.7195   -8.2491   -3.2498 O.2       1 ****       -0.4392 
      3 C3         -3.1777   -2.8090   -4.0889 C.ar      1 ****       -0.1265 
      4 N4         -8.9715   -3.4276    0.5592 N.am      1 ****       -0.4464 
      5 O5         -9.5175   -1.3108   -0.0385 O.2       1 ****       -0.4971 
      6 C6         -3.3139   -4.0462   -3.4612 C.ar      1 ****       -0.1266 
      7 N7         -8.3597   -1.0677    2.8592 N.am      1 ****       -0.4287 
      8 O8         -8.8158   -6.1002    0.3327 O.2       1 ****       -0.4899 
      9 C9         -4.2859   -1.9871   -4.2878 C.ar      1 ****       -0.1266 
     10 O10        -7.1743   -2.9778    3.4427 O.2       1 ****       -0.5584 
     11 C11        -4.5699   -4.4657   -3.0294 C.ar      1 ****       -0.1208 
     12 O12       -14.7200   -4.8375    1.2839 O.3       1 ****       -0.3046 
     13 C13        -5.5420   -2.4068   -3.8560 C.ar      1 ****       -0.1208 
     14 C14       -12.6704   -1.8225    1.0906 C.ar      1 ****       -0.1074 
     15 C15       -12.5248   -2.7534    3.3236 C.ar      1 ****       -0.1074 
     16 C16       -12.0015   -7.0150    0.1367 C.ar      1 ****       -0.0703 
     17 C17       -13.5533   -6.6362   -1.6822 C.ar      1 ****       -0.0703 
     18 C18       -13.6371   -2.7660    0.7629 C.ar      1 ****       -0.1371 
     19 C19       -13.4978   -3.6939    2.9937 C.ar      1 ****       -0.1371 
     20 C20       -12.8430   -6.3176    0.9929 C.ar      1 ****       -0.1474 
     21 C21       -14.3898   -5.9287   -0.8194 C.ar      1 ****       -0.1474 
     22 C22       -10.8407   -0.9990    2.6204 C.3       1 ****       -0.0899 
     23 C23        -9.8442   -7.5076   -1.9607 C.3       1 ****        0.0000 
     24 C24        -7.0551   -4.1023   -2.7515 C.3       1 ****       -0.0807 
     25 C25        -7.3510   -3.6545   -1.3046 C.3       1 ****       -0.1465 
     26 C26       -12.0699   -1.8585    2.3507 C.ar      1 ****       -0.0954 
     27 C27        -5.6848   -3.6470   -3.2282 C.ar      1 ****       -0.0867 
     28 C28       -12.3199   -7.1224   -1.2230 C.ar      1 ****       -0.1988 
     29 C29       -13.9997   -3.7406    1.6939 C.ar      1 ****        0.1126 
     30 C30       -14.0066   -5.7198    0.5030 C.ar      1 ****        0.1480 
     31 C31       -11.3578   -7.7562   -2.1796 C.2       1 ****        0.5428 
     32 C32        -9.3306   -2.1650    0.8302 C.2       1 ****        0.5068 
     33 C33        -9.0430   -5.4868   -0.7095 C.2       1 ****        0.4913 
     34 C34        -7.2697   -1.7557    3.3529 C.2       1 ****        0.6177 
     35 C35        -9.5307   -1.7885    2.3254 C.3       1 ****        0.0368 
     36 C36        -8.7695   -3.9761   -0.7776 C.3       1 ****        0.0493 
     37 H37        -9.6413   -2.7244    2.8822 H         1 ****        0.0942 
     38 H38        -9.5089   -3.5315   -1.4472 H         1 ****        0.0403 
     39 H39        -2.2030   -2.4832   -4.4235 H         1 ****        0.1310 
     40 H40        -2.4493   -4.6765   -3.3093 H         1 ****        0.1318 
     41 H41        -4.1715   -1.0285   -4.7734 H         1 ****        0.1318 
     42 H42        -4.6747   -5.4233   -2.5394 H         1 ****        0.1306 
     43 H43        -6.4004   -1.7676   -4.0063 H         1 ****        0.1306 
     44 H44       -12.3236   -1.1315    0.3344 H         1 ****        0.1425 
     45 H45       -12.0741   -2.7768    4.3055 H         1 ****        0.1425 
     46 H46       -11.0787   -7.4106    0.5395 H         1 ****        0.1418 
     47 H47       -13.8400   -6.7439   -2.7202 H         1 ****        0.1418 
     48 H48       -14.0330   -2.8099   -0.2404 H         1 ****        0.1411 
     49 H49       -13.7940   -4.4472    3.7080 H         1 ****        0.1411 
     50 H50       -12.5554   -6.1720    2.0228 H         1 ****        0.1467 
     51 H51       -15.3017   -5.4816   -1.1858 H         1 ****        0.1467 
     52 H52       -10.8827   -0.0831    2.0272 H         1 ****        0.1003 
     53 H53       -10.8642   -0.6727    3.6617 H         1 ****        0.1003 
     54 H54        -9.5330   -8.0956   -1.0951 H         1 ****        0.1033 
     55 H55        -9.2860   -7.9292   -2.7979 H         1 ****        0.1033 
     56 H56        -7.1102   -5.1880   -2.8444 H         1 ****        0.0688 
     57 H57        -7.8169   -3.7178   -3.4319 H         1 ****        0.0688 
     58 H58        -6.6017   -4.0812   -0.6350 H         1 ****        0.1001 
     59 H59        -7.1898   -2.5769   -1.2414 H         1 ****        0.1001 
     60 H60        -9.6626   -5.4773   -2.6294 H         1 ****        0.3051 
     61 H61        -8.8356   -4.0987    1.3058 H         1 ****        0.2948 
     62 H62        -8.2611   -0.0776    2.7068 H         1 ****        0.2648 
     63 O63        -6.3257   -0.8608    3.6997 O.3       1 ****       -0.3463 
     64 C64        -5.0344   -1.1949    4.2214 C.3       1 ****        0.3044 
     65 C65        -4.2050   -2.0117    3.2084 C.3       1 ****       -0.2330 
     66 H66        -3.1791   -2.1476    3.5505 H         1 ****        0.0759 
     67 H67        -4.6259   -3.0038    3.0456 H         1 ****        0.0759 
     68 H68        -4.1687   -1.5153    2.2385 H         1 ****        0.0759 
     69 C69        -4.3617    0.1696    4.4383 C.3       1 ****       -0.2330 
     70 H70        -4.2875    0.7279    3.5045 H         1 ****        0.0759 
     71 H71        -4.9308    0.7860    5.1350 H         1 ****        0.0759 
     72 H72        -3.3539    0.0619    4.8397 H         1 ****        0.0759 
     73 C73        -5.1391   -1.9281    5.5751 C.3       1 ****       -0.2330 
     74 H74        -5.7618   -1.3724    6.2762 H         1 ****        0.0759 
     75 H75        -5.5815   -2.9183    5.4669 H         1 ****        0.0759 
     76 H76        -4.1591   -2.0601    6.0334 H         1 ****        0.0759 
@<TRIPOS>BOND
     1    1   60 1    
     2    1   23 1    
     3    1   33 am   BACKBONE|DICT|INTERRES
     4    2   31 2    
     5    3    6 ar   
     6    3    9 ar   
     7    3   39 1    
     8    4   61 1    
     9    4   32 am   BACKBONE|DICT|INTERRES
    10    4   36 1    
    11    5   32 2    
    12    6   11 ar   
    13    6   40 1    
    14    7   62 1    
    15    7   34 am   BACKBONE|DICT|INTERRES
    16    7   35 1    
    17    8   33 2    
    18    9   13 ar   
    19    9   41 1    
    20   10   34 2    
    21   11   27 ar   
    22   11   42 1    
    23   12   29 1    
    24   12   30 1    
    25   13   27 ar   
    26   13   43 1    
    27   14   18 ar   
    28   14   26 ar   
    29   14   44 1    
    30   15   19 ar   
    31   15   26 ar   
    32   15   45 1    
    33   16   20 ar   
    34   16   28 ar   
    35   16   46 1    
    36   17   21 ar   
    37   17   28 ar   
    38   17   47 1    
    39   18   29 ar   
    40   18   48 1    
    41   19   29 ar   
    42   19   49 1    
    43   20   30 ar   
    44   20   50 1    
    45   21   30 ar   
    46   21   51 1    
    47   22   26 1    
    48   22   35 1    
    49   22   52 1    
    50   22   53 1    
    51   23   31 1    
    52   23   54 1    
    53   23   55 1    
    54   24   25 1    
    55   24   27 1    
    56   24   56 1    
    57   24   57 1    
    58   25   36 1    
    59   25   58 1    
    60   25   59 1    
    61   28   31 1    
    62   32   35 1    
    63   33   36 1    
    64   34   63 1    
    65   35   37 1    
    66   36   38 1    
    67   63   64 1    
    68   64   65 1    
    69   64   69 1    
    70   64   73 1    
    71   65   66 1    
    72   65   67 1    
    73   65   68 1    
    74   69   70 1    
    75   69   71 1    
    76   69   72 1    
    77   73   74 1    
    78   73   75 1    
    79   73   76 1    
@<TRIPOS>SUBSTRUCTURE
     1 ****        1 GROUP             0       ****    0 ROOT    
@<TRIPOS>MOLECULE
Cpd4-8
76   79    1
SMALL
USER_CHARGES


@<TRIPOS>ATOM
      1 N1         -9.5280   -6.0813   -1.8390 N.am      1 ****       -0.5840 
      2 O2        -11.7027   -8.3021   -3.2370 O.2       1 ****       -0.4392 
      3 C3         -2.6709   -2.6514   -2.4638 C.ar      1 ****       -0.1265 
      4 N4         -9.0781   -3.4002    0.5449 N.am      1 ****       -0.4464 
      5 O5         -9.4087   -1.2249    0.0035 O.2       1 ****       -0.4971 
      6 C6         -3.1812   -3.9095   -2.7803 C.ar      1 ****       -0.1266 
      7 N7         -8.3417   -1.0453    2.9052 N.am      1 ****       -0.4287 
      8 O8         -8.9405   -6.0474    0.3520 O.2       1 ****       -0.4899 
      9 C9         -3.3351   -1.8210   -1.5625 C.ar      1 ****       -0.1266 
     10 O10        -6.2666   -1.0251    3.8802 O.2       1 ****       -0.5584 
     11 C11        -4.3666   -4.3412   -2.1896 C.ar      1 ****       -0.1208 
     12 O12       -14.6955   -4.8355    1.2628 O.3       1 ****       -0.3046 
     13 C13        -4.5202   -2.2529   -0.9718 C.ar      1 ****       -0.1208 
     14 C14       -12.6270   -1.8293    1.0913 C.ar      1 ****       -0.1074 
     15 C15       -12.5077   -2.7616    3.3250 C.ar      1 ****       -0.1074 
     16 C16       -12.0120   -7.0672    0.1406 C.ar      1 ****       -0.0703 
     17 C17       -13.5252   -6.6378   -1.6996 C.ar      1 ****       -0.0703 
     18 C18       -13.5888   -2.7734    0.7510 C.ar      1 ****       -0.1371 
     19 C19       -13.4761   -3.7026    2.9824 C.ar      1 ****       -0.1371 
     20 C20       -12.8494   -6.3553    0.9890 C.ar      1 ****       -0.1474 
     21 C21       -14.3586   -5.9179   -0.8441 C.ar      1 ****       -0.1474 
     22 C22       -10.8212   -0.9981    2.6467 C.3       1 ****       -0.0899 
     23 C23        -9.8326   -7.5287   -1.9567 C.3       1 ****        0.0000 
     24 C24        -6.3307   -3.9804   -0.6410 C.3       1 ****       -0.0807 
     25 C25        -7.5792   -3.5707   -1.4509 C.3       1 ****       -0.1465 
     26 C26       -12.0427   -1.8642    2.3593 C.ar      1 ****       -0.0954 
     27 C27        -5.0358   -3.5133   -1.2849 C.ar      1 ****       -0.0867 
     28 C28       -12.3099   -7.1534   -1.2252 C.ar      1 ****       -0.1988 
     29 C29       -13.9649   -3.7472    1.6775 C.ar      1 ****        0.1126 
     30 C30       -13.9904   -5.7269    0.4854 C.ar      1 ****        0.1480 
     31 C31       -11.3442   -7.7966   -2.1716 C.2       1 ****        0.5428 
     32 C32        -9.3076   -2.1162    0.8480 C.2       1 ****        0.5068 
     33 C33        -9.1352   -5.4647   -0.7155 C.2       1 ****        0.4913 
     34 C34        -7.1876   -1.6559    3.3756 C.2       1 ****        0.6177 
     35 C35        -9.5033   -1.7745    2.3512 C.3       1 ****        0.0368 
     36 C36        -8.9312   -3.9454   -0.7993 C.3       1 ****        0.0493 
     37 H37        -9.6119   -2.7157    2.8967 H         1 ****        0.0942 
     38 H38        -9.7396   -3.5430   -1.4133 H         1 ****        0.0403 
     39 H39        -1.7513   -2.3163   -2.9220 H         1 ****        0.1310 
     40 H40        -2.6600   -4.5467   -3.4804 H         1 ****        0.1318 
     41 H41        -2.9336   -0.8467   -1.3227 H         1 ****        0.1318 
     42 H42        -4.7629   -5.3161   -2.4352 H         1 ****        0.1306 
     43 H43        -5.0373   -1.6094   -0.2737 H         1 ****        0.1306 
     44 H44       -12.2739   -1.1351    0.3407 H         1 ****        0.1425 
     45 H45       -12.0720   -2.7834    4.3135 H         1 ****        0.1425 
     46 H46       -11.1054   -7.4890    0.5531 H         1 ****        0.1418 
     47 H47       -13.7975   -6.7311   -2.7429 H         1 ****        0.1418 
     48 H48       -13.9757   -2.8142   -0.2559 H         1 ****        0.1411 
     49 H49       -13.7841   -4.4541    3.6936 H         1 ****        0.1411 
     50 H50       -12.5761   -6.2243    2.0247 H         1 ****        0.1467 
     51 H51       -15.2546   -5.4479   -1.2207 H         1 ****        0.1467 
     52 H52       -10.8673   -0.0755    2.0638 H         1 ****        0.1003 
     53 H53       -10.8544   -0.6832    3.6913 H         1 ****        0.1003 
     54 H54        -9.5141   -8.0976   -1.0811 H         1 ****        0.1033 
     55 H55        -9.2698   -7.9588   -2.7864 H         1 ****        0.1033 
     56 H56        -6.3896   -3.5671    0.3661 H         1 ****        0.0688 
     57 H57        -6.2920   -5.0618   -0.4992 H         1 ****        0.0688 
     58 H58        -7.5534   -2.4933   -1.6230 H         1 ****        0.1001 
     59 H59        -7.5139   -4.0010   -2.4513 H         1 ****        0.1001 
     60 H60        -9.6416   -5.5156   -2.6693 H         1 ****        0.3051 
     61 H61        -9.0256   -4.1054    1.2689 H         1 ****        0.2948 
     62 H62        -8.3514   -0.0388    2.9121 H         1 ****        0.2648 
     63 O63        -7.2147   -3.0053    3.2127 O.3       1 ****       -0.3463 
     64 C64        -6.2250   -3.9134    3.7080 C.3       1 ****        0.3044 
     65 C65        -4.8193   -3.6372    3.1333 C.3       1 ****       -0.2330 
     66 H66        -4.1164   -4.4227    3.4099 H         1 ****        0.0759 
     67 H67        -4.8341   -3.5800    2.0461 H         1 ****        0.0759 
     68 H68        -4.4069   -2.6964    3.4966 H         1 ****        0.0759 
     69 C69        -6.1992   -3.9060    5.2496 C.3       1 ****       -0.2330 
     70 H70        -5.8525   -2.9494    5.6412 H         1 ****        0.0759 
     71 H71        -7.1928   -4.0816    5.6619 H         1 ****        0.0759 
     72 H72        -5.5358   -4.6773    5.6407 H         1 ****        0.0759 
     73 C73        -6.7102   -5.2854    3.2139 C.3       1 ****       -0.2330 
     74 H74        -7.7080   -5.5152    3.5889 H         1 ****        0.0759 
     75 H75        -6.7659   -5.3215    2.1254 H         1 ****        0.0759 
     76 H76        -6.0451   -6.0870    3.5351 H         1 ****        0.0759 
@<TRIPOS>BOND
     1    1   60 1    
     2    1   23 1    
     3    1   33 am   BACKBONE|DICT|INTERRES
     4    2   31 2    
     5    3    6 ar   
     6    3    9 ar   
     7    3   39 1    
     8    4   61 1    
     9    4   32 am   BACKBONE|DICT|INTERRES
    10    4   36 1    
    11    5   32 2    
    12    6   11 ar   
    13    6   40 1    
    14    7   62 1    
    15    7   34 am   BACKBONE|DICT|INTERRES
    16    7   35 1    
    17    8   33 2    
    18    9   13 ar   
    19    9   41 1    
    20   10   34 2    
    21   11   27 ar   
    22   11   42 1    
    23   12   29 1    
    24   12   30 1    
    25   13   27 ar   
    26   13   43 1    
    27   14   18 ar   
    28   14   26 ar   
    29   14   44 1    
    30   15   19 ar   
    31   15   26 ar   
    32   15   45 1    
    33   16   20 ar   
    34   16   28 ar   
    35   16   46 1    
    36   17   21 ar   
    37   17   28 ar   
    38   17   47 1    
    39   18   29 ar   
    40   18   48 1    
    41   19   29 ar   
    42   19   49 1    
    43   20   30 ar   
    44   20   50 1    
    45   21   30 ar   
    46   21   51 1    
    47   22   26 1    
    48   22   35 1    
    49   22   52 1    
    50   22   53 1    
    51   23   31 1    
    52   23   54 1    
    53   23   55 1    
    54   24   25 1    
    55   24   27 1    
    56   24   56 1    
    57   24   57 1    
    58   25   36 1    
    59   25   58 1    
    60   25   59 1    
    61   28   31 1    
    62   32   35 1    
    63   33   36 1    
    64   34   63 1    
    65   35   37 1    
    66   36   38 1    
    67   63   64 1    
    68   64   65 1    
    69   64   69 1    
    70   64   73 1    
    71   65   66 1    
    72   65   67 1    
    73   65   68 1    
    74   69   70 1    
    75   69   71 1    
    76   69   72 1    
    77   73   74 1    
    78   73   75 1    
    79   73   76 1    
@<TRIPOS>SUBSTRUCTURE
     1 ****        1 GROUP             0       ****    0 ROOT    
@<TRIPOS>MOLECULE
Cpd4-9
76   79    1
SMALL
USER_CHARGES


@<TRIPOS>ATOM
      1 N1         -9.8256   -5.7438   -2.2654 N.am      1 ****       -0.5840 
      2 O2        -10.8918   -9.0928   -1.4390 O.2       1 ****       -0.4392 
      3 C3        -10.6090   -2.5899   -5.8661 C.ar      1 ****       -0.1265 
      4 N4         -9.1852   -3.4006    0.3966 N.am      1 ****       -0.4464 
      5 O5         -9.3395   -1.1554    0.1275 O.2       1 ****       -0.4971 
      6 C6         -9.9655   -3.8173   -6.0093 C.ar      1 ****       -0.1266 
      7 N7         -8.2381   -1.2302    2.8637 N.am      1 ****       -0.4287 
      8 O8         -9.0504   -6.0158   -0.1478 O.2       1 ****       -0.4899 
      9 C9        -10.2468   -1.7136   -4.8451 C.ar      1 ****       -0.1266 
     10 O10        -8.4740   -1.8094    5.0995 O.2       1 ****       -0.5584 
     11 C11        -8.9547   -4.1735   -5.1199 C.ar      1 ****       -0.1208 
     12 O12       -14.8122   -4.6806    1.0511 O.3       1 ****       -0.3046 
     13 C13        -9.2347   -2.0694   -3.9572 C.ar      1 ****       -0.1208 
     14 C14       -12.7181   -1.6979    1.2840 C.ar      1 ****       -0.1074 
     15 C15       -12.3291   -3.1052    3.2182 C.ar      1 ****       -0.1074 
     16 C16       -12.6956   -7.5368    0.2087 C.ar      1 ****       -0.0703 
     17 C17       -12.8313   -6.0484   -1.6962 C.ar      1 ****       -0.0703 
     18 C18       -13.7396   -2.5479    0.8726 C.ar      1 ****       -0.1371 
     19 C19       -13.3479   -3.9564    2.8008 C.ar      1 ****       -0.1371 
     20 C20       -13.6270   -6.7529    0.8846 C.ar      1 ****       -0.1474 
     21 C21       -13.7653   -5.2720   -1.0191 C.ar      1 ****       -0.1474 
     22 C22       -10.7346   -1.1989    2.7692 C.3       1 ****       -0.0899 
     23 C23       -10.1116   -7.1597   -2.6195 C.3       1 ****        0.0000 
     24 C24        -7.4829   -3.7190   -3.1181 C.3       1 ****       -0.0807 
     25 C25        -7.7159   -3.3597   -1.6276 C.3       1 ****       -0.1465 
     26 C26       -11.9798   -2.0073    2.4287 C.ar      1 ****       -0.0954 
     27 C27        -8.5923   -3.3061   -4.0845 C.ar      1 ****       -0.0867 
     28 C28       -12.2372   -7.1458   -1.0571 C.ar      1 ****       -0.1988 
     29 C29       -14.0098   -3.7086    1.5978 C.ar      1 ****        0.1126 
     30 C30       -14.1127   -5.5884    0.2934 C.ar      1 ****        0.1480 
     31 C31       -11.1204   -7.9099   -1.7018 C.2       1 ****        0.5428 
     32 C32        -9.3099   -2.1478    0.8593 C.2       1 ****        0.5068 
     33 C33        -9.3250   -5.2933   -1.1046 C.2       1 ****        0.4913 
     34 C34        -7.8935   -1.2084    4.1982 C.2       1 ****        0.6177 
     35 C35        -9.4250   -1.9681    2.3974 C.3       1 ****        0.0368 
     36 C36        -9.0788   -3.7797   -1.0089 C.3       1 ****        0.0493 
     37 H37        -9.4394   -2.9562    2.8658 H         1 ****        0.0942 
     38 H38        -9.8923   -3.2804   -1.5380 H         1 ****        0.0403 
     39 H39       -11.3915   -2.3110   -6.5577 H         1 ****        0.1310 
     40 H40       -10.2452   -4.4860   -6.8111 H         1 ****        0.1318 
     41 H41       -10.7459   -0.7604   -4.7432 H         1 ****        0.1318 
     42 H42        -8.4525   -5.1229   -5.2412 H         1 ****        0.1306 
     43 H43        -8.9609   -1.3819   -3.1690 H         1 ****        0.1306 
     44 H44       -12.4539   -0.8468    0.6721 H         1 ****        0.1425 
     45 H45       -11.7694   -3.3386    4.1134 H         1 ****        0.1425 
     46 H46       -12.2770   -8.4016    0.7070 H         1 ****        0.1418 
     47 H47       -12.5333   -5.7451   -2.6901 H         1 ****        0.1418 
     48 H48       -14.2623   -2.3592   -0.0523 H         1 ****        0.1411 
     49 H49       -13.5698   -4.8527    3.3595 H         1 ****        0.1411 
     50 H50       -13.9133   -6.9981    1.8958 H         1 ****        0.1467 
     51 H51       -14.1606   -4.3778   -1.4757 H         1 ****        0.1467 
     52 H52       -10.7646   -0.2252    2.2751 H         1 ****        0.1003 
     53 H53       -10.7615   -0.9759    3.8374 H         1 ****        0.1003 
     54 H54        -9.1697   -7.7119   -2.6090 H         1 ****        0.1033 
     55 H55       -10.4973   -7.2141   -3.6370 H         1 ****        0.1033 
     56 H56        -6.5622   -3.2446   -3.4617 H         1 ****        0.0688 
     57 H57        -7.3050   -4.7931   -3.1991 H         1 ****        0.0688 
     58 H58        -6.9172   -3.8063   -1.0332 H         1 ****        0.1001 
     59 H59        -7.6080   -2.2807   -1.5156 H         1 ****        0.1001 
     60 H60        -9.9314   -5.0482   -2.9958 H         1 ****        0.3051 
     61 H61        -9.2009   -4.1973    1.0214 H         1 ****        0.2948 
     62 H62        -7.7542   -0.6104    2.2334 H         1 ****        0.2648 
     63 O63        -6.8171   -0.4127    4.3439 O.3       1 ****       -0.3463 
     64 C64        -6.1618   -0.1412    5.5881 C.3       1 ****        0.3044 
     65 C65        -5.5713   -1.4229    6.2123 C.3       1 ****       -0.2330 
     66 H66        -4.9602   -1.1958    7.0857 H         1 ****        0.0759 
     67 H67        -6.3507   -2.1138    6.5335 H         1 ****        0.0759 
     68 H68        -4.9441   -1.9554    5.4973 H         1 ****        0.0759 
     69 C69        -5.0145    0.8044    5.2001 C.3       1 ****       -0.2330 
     70 H70        -4.3399    0.3358    4.4826 H         1 ****        0.0759 
     71 H71        -5.3918    1.7161    4.7356 H         1 ****        0.0759 
     72 H72        -4.4227    1.0964    6.0679 H         1 ****        0.0759 
     73 C73        -7.0978    0.5806    6.5799 C.3       1 ****       -0.2330 
     74 H74        -7.5491    1.4620    6.1245 H         1 ****        0.0759 
     75 H75        -7.9125   -0.0634    6.9107 H         1 ****        0.0759 
     76 H76        -6.5603    0.9053    7.4708 H         1 ****        0.0759 
@<TRIPOS>BOND
     1    1   60 1    
     2    1   23 1    
     3    1   33 am   BACKBONE|DICT|INTERRES
     4    2   31 2    
     5    3    6 ar   
     6    3    9 ar   
     7    3   39 1    
     8    4   61 1    
     9    4   32 am   BACKBONE|DICT|INTERRES
    10    4   36 1    
    11    5   32 2    
    12    6   11 ar   
    13    6   40 1    
    14    7   62 1    
    15    7   34 am   BACKBONE|DICT|INTERRES
    16    7   35 1    
    17    8   33 2    
    18    9   13 ar   
    19    9   41 1    
    20   10   34 2    
    21   11   27 ar   
    22   11   42 1    
    23   12   29 1    
    24   12   30 1    
    25   13   27 ar   
    26   13   43 1    
    27   14   18 ar   
    28   14   26 ar   
    29   14   44 1    
    30   15   19 ar   
    31   15   26 ar   
    32   15   45 1    
    33   16   20 ar   
    34   16   28 ar   
    35   16   46 1    
    36   17   21 ar   
    37   17   28 ar   
    38   17   47 1    
    39   18   29 ar   
    40   18   48 1    
    41   19   29 ar   
    42   19   49 1    
    43   20   30 ar   
    44   20   50 1    
    45   21   30 ar   
    46   21   51 1    
    47   22   26 1    
    48   22   35 1    
    49   22   52 1    
    50   22   53 1    
    51   23   31 1    
    52   23   54 1    
    53   23   55 1    
    54   24   25 1    
    55   24   27 1    
    56   24   56 1    
    57   24   57 1    
    58   25   36 1    
    59   25   58 1    
    60   25   59 1    
    61   28   31 1    
    62   32   35 1    
    63   33   36 1    
    64   34   63 1    
    65   35   37 1    
    66   36   38 1    
    67   63   64 1    
    68   64   65 1    
    69   64   69 1    
    70   64   73 1    
    71   65   66 1    
    72   65   67 1    
    73   65   68 1    
    74   69   70 1    
    75   69   71 1    
    76   69   72 1    
    77   73   74 1    
    78   73   75 1    
    79   73   76 1    
@<TRIPOS>SUBSTRUCTURE
     1 ****        1 GROUP             0       ****    0 ROOT    
@<TRIPOS>MOLECULE
Cpd4-10
76   79    1
SMALL
USER_CHARGES


@<TRIPOS>ATOM
      1 N1         -9.5276   -6.0740   -1.8221 N.am      1 ****       -0.5840 
      2 O2        -11.7122   -8.2706   -3.2489 O.2       1 ****       -0.4392 
      3 C3        -10.0340   -3.4006   -5.8572 C.ar      1 ****       -0.1265 
      4 N4         -9.0484   -3.4112    0.5523 N.am      1 ****       -0.4464 
      5 O5         -9.4179   -1.2483   -0.0155 O.2       1 ****       -0.4971 
      6 C6         -9.3767   -4.6276   -5.7977 C.ar      1 ****       -0.1266 
      7 N7         -8.3562   -1.0278    2.8817 N.am      1 ****       -0.4287 
      8 O8         -8.8938   -6.0662    0.3550 O.2       1 ****       -0.4899 
      9 C9         -9.7531   -2.3999   -4.9295 C.ar      1 ****       -0.1266 
     10 O10        -6.2326   -0.9810    3.7474 O.2       1 ****       -0.5584 
     11 C11        -8.4344   -4.8570   -4.7984 C.ar      1 ****       -0.1208 
     12 O12       -14.7065   -4.8453    1.2799 O.3       1 ****       -0.3046 
     13 C13        -8.8094   -2.6292   -3.9314 C.ar      1 ****       -0.1208 
     14 C14       -12.6454   -1.8362    1.0833 C.ar      1 ****       -0.1074 
     15 C15       -12.5114   -2.7592    3.3202 C.ar      1 ****       -0.1074 
     16 C16       -12.0108   -7.0504    0.1373 C.ar      1 ****       -0.0703 
     17 C17       -13.5417   -6.6352   -1.6914 C.ar      1 ****       -0.0703 
     18 C18       -13.6089   -2.7821    0.7534 C.ar      1 ****       -0.1371 
     19 C19       -13.4814   -3.7020    2.9880 C.ar      1 ****       -0.1371 
     20 C20       -12.8504   -6.3498    0.9927 C.ar      1 ****       -0.1474 
     21 C21       -14.3766   -5.9251   -0.8293 C.ar      1 ****       -0.1474 
     22 C22       -10.8344   -0.9939    2.6250 C.3       1 ****       -0.0899 
     23 C23        -9.8411   -7.5162   -1.9597 C.3       1 ****        0.0000 
     24 C24        -7.1177   -4.1389   -2.7667 C.3       1 ****       -0.0807 
     25 C25        -7.4582   -3.5965   -1.3548 C.3       1 ****       -0.1465 
     26 C26       -12.0538   -1.8651    2.3479 C.ar      1 ****       -0.0954 
     27 C27        -8.1539   -3.8633   -3.8555 C.ar      1 ****       -0.0867 
     28 C28       -12.3179   -7.1390   -1.2262 C.ar      1 ****       -0.1988 
     29 C29       -13.9783   -3.7523    1.6865 C.ar      1 ****        0.1126 
     30 C30       -14.0010   -5.7323    0.4978 C.ar      1 ****        0.1480 
     31 C31       -11.3533   -7.7721   -2.1803 C.2       1 ****        0.5428 
     32 C32        -9.3122   -2.1292    0.8397 C.2       1 ****        0.5068 
     33 C33        -9.0961   -5.4732   -0.7051 C.2       1 ****        0.4913 
     34 C34        -7.1793   -1.6248    3.3107 C.2       1 ****        0.6177 
     35 C35        -9.5151   -1.7707    2.3393 C.3       1 ****        0.0368 
     36 C36        -8.8559   -3.9583   -0.7851 C.3       1 ****        0.0493 
     37 H37        -9.6169   -2.7059    2.8962 H         1 ****        0.0942 
     38 H38        -9.6336   -3.5390   -1.4261 H         1 ****        0.0403 
     39 H39       -10.7653   -3.2216   -6.6327 H         1 ****        0.1310 
     40 H40        -9.5959   -5.3964   -6.5252 H         1 ****        0.1318 
     41 H41       -10.2635   -1.4488   -4.9834 H         1 ****        0.1318 
     42 H42        -7.9241   -5.8092   -4.7611 H         1 ****        0.1306 
     43 H43        -8.5996   -1.8458   -3.2166 H         1 ****        0.1306 
     44 H44       -12.2968   -1.1460    0.3271 H         1 ****        0.1425 
     45 H45       -12.0693   -2.7763    4.3061 H         1 ****        0.1425 
     46 H46       -11.0964   -7.4618    0.5430 H         1 ****        0.1418 
     47 H47       -13.8192   -6.7285   -2.7334 H         1 ****        0.1418 
     48 H48       -14.0004   -2.8287   -0.2516 H         1 ****        0.1411 
     49 H49       -13.7836   -4.4515    3.7040 H         1 ****        0.1411 
     50 H50       -12.5707   -6.2163    2.0264 H         1 ****        0.1467 
     51 H51       -15.2789   -5.4621   -1.1997 H         1 ****        0.1467 
     52 H52       -10.8818   -0.0786    2.0310 H         1 ****        0.1003 
     53 H53       -10.8689   -0.6666    3.6657 H         1 ****        0.1003 
     54 H54        -9.5264   -8.0982   -1.0915 H         1 ****        0.1033 
     55 H55        -9.2801   -7.9358   -2.7959 H         1 ****        0.1033 
     56 H56        -6.1743   -3.7037   -3.1004 H         1 ****        0.0688 
     57 H57        -6.9356   -5.2130   -2.6971 H         1 ****        0.0688 
     58 H58        -6.6994   -3.9478   -0.6540 H         1 ****        0.1001 
     59 H59        -7.3737   -2.5093   -1.3709 H         1 ****        0.1001 
     60 H60        -9.6237   -5.4906   -2.6467 H         1 ****        0.3051 
     61 H61        -9.0029   -4.1102    1.2826 H         1 ****        0.2948 
     62 H62        -8.3702   -0.0214    2.8718 H         1 ****        0.2648 
     63 O63        -7.2084   -2.9768    3.1718 O.3       1 ****       -0.3463 
     64 C64        -6.1202   -3.8567    3.4686 C.3       1 ****        0.3044 
     65 C65        -4.8889   -3.5559    2.5893 C.3       1 ****       -0.2330 
     66 H66        -4.1149   -4.3129    2.7151 H         1 ****        0.0759 
     67 H67        -5.1579   -3.5276    1.5334 H         1 ****        0.0759 
     68 H68        -4.4418   -2.5923    2.8332 H         1 ****        0.0759 
     69 C69        -5.7593   -3.8246    4.9675 C.3       1 ****       -0.2330 
     70 H70        -5.3412   -2.8626    5.2632 H         1 ****        0.0759 
     71 H71        -6.6389   -3.9975    5.5875 H         1 ****        0.0759 
     72 H72        -5.0223   -4.5881    5.2160 H         1 ****        0.0759 
     73 C73        -6.6652   -5.2470    3.1077 C.3       1 ****       -0.2330 
     74 H74        -7.5649   -5.4837    3.6766 H         1 ****        0.0759 
     75 H75        -6.9301   -5.3081    2.0517 H         1 ****        0.0759 
     76 H76        -5.9338   -6.0302    3.3072 H         1 ****        0.0759 
@<TRIPOS>BOND
     1    1   60 1    
     2    1   23 1    
     3    1   33 am   BACKBONE|DICT|INTERRES
     4    2   31 2    
     5    3    6 ar   
     6    3    9 ar   
     7    3   39 1    
     8    4   61 1    
     9    4   32 am   BACKBONE|DICT|INTERRES
    10    4   36 1    
    11    5   32 2    
    12    6   11 ar   
    13    6   40 1    
    14    7   62 1    
    15    7   34 am   BACKBONE|DICT|INTERRES
    16    7   35 1    
    17    8   33 2    
    18    9   13 ar   
    19    9   41 1    
    20   10   34 2    
    21   11   27 ar   
    22   11   42 1    
    23   12   29 1    
    24   12   30 1    
    25   13   27 ar   
    26   13   43 1    
    27   14   18 ar   
    28   14   26 ar   
    29   14   44 1    
    30   15   19 ar   
    31   15   26 ar   
    32   15   45 1    
    33   16   20 ar   
    34   16   28 ar   
    35   16   46 1    
    36   17   21 ar   
    37   17   28 ar   
    38   17   47 1    
    39   18   29 ar   
    40   18   48 1    
    41   19   29 ar   
    42   19   49 1    
    43   20   30 ar   
    44   20   50 1    
    45   21   30 ar   
    46   21   51 1    
    47   22   26 1    
    48   22   35 1    
    49   22   52 1    
    50   22   53 1    
    51   23   31 1    
    52   23   54 1    
    53   23   55 1    
    54   24   25 1    
    55   24   27 1    
    56   24   56 1    
    57   24   57 1    
    58   25   36 1    
    59   25   58 1    
    60   25   59 1    
    61   28   31 1    
    62   32   35 1    
    63   33   36 1    
    64   34   63 1    
    65   35   37 1    
    66   36   38 1    
    67   63   64 1    
    68   64   65 1    
    69   64   69 1    
    70   64   73 1    
    71   65   66 1    
    72   65   67 1    
    73   65   68 1    
    74   69   70 1    
    75   69   71 1    
    76   69   72 1    
    77   73   74 1    
    78   73   75 1    
    79   73   76 1    
@<TRIPOS>SUBSTRUCTURE
     1 ****        1 GROUP             0       ****    0 ROOT    
