@<TRIPOS>MOLECULE
Cpd4-500
76   79    1
SMALL
USER_CHARGES


@<TRIPOS>ATOM
      1 C           6.0607   -0.0442   -2.8860 C.3       1 ****        0.0000 
      2 H           5.0886    0.0856   -3.3616 H         1 ****        0.0000 
      3 H           6.8032    0.5433   -3.4345 H         1 ****        0.0000 
      4 H           6.3517   -1.0987   -2.9341 H         1 ****        0.0000 
      5 C           6.0373    0.4272   -1.4358 C.3       1 ****        0.0000 
      6 C           5.4920    1.8419   -1.2895 C.3       1 ****        0.0000 
      7 H           4.4859    1.9184   -1.7058 H         1 ****        0.0000 
      8 H           5.4788    2.1358   -0.2359 H         1 ****        0.0000 
      9 H           6.1338    2.5390   -1.8386 H         1 ****        0.0000 
     10 C           7.4239    0.3118   -0.8138 C.3       1 ****        0.0000 
     11 H           7.7954   -0.7141   -0.8911 H         1 ****        0.0000 
     12 H           8.1178    0.9753   -1.3374 H         1 ****        0.0000 
     13 H           7.3952    0.5982    0.2413 H         1 ****        0.0000 
     14 O           5.2400   -0.4823   -0.6059 O.3       1 ****        0.0000 
     15 C           3.9395   -0.6881   -0.8376 C.3       1 ****        0.0000 
     16 O           3.3112   -0.3154   -1.8224 O.3       1 ****        0.0000 
     17 N           3.3896   -1.4006    0.1817 N.3       1 ****        0.0000 
     18 H           3.9611   -1.5714    0.9978 H         1 ****        0.0000 
     19 C           2.0037   -1.8423    0.1788 C.3       1 ****        0.0000 
     20 C           1.1023   -0.6510    0.5630 C.3       1 ****        0.0000 
     21 N           0.7323    0.1347   -0.4971 N.3       1 ****        0.0000 
     22 H           1.2875   -0.0447   -1.3324 H         1 ****        0.0000 
     23 O           0.8077   -0.4140    1.7246 O.3       1 ****        0.0000 
     24 H           1.7572   -2.1631   -0.8400 H         1 ****        0.0000 
     25 C           1.8483   -3.0192    1.1497 C.3       1 ****        0.0000 
     26 H           2.1538   -2.6943    2.1492 H         1 ****        0.0000 
     27 H           2.5309   -3.8113    0.8235 H         1 ****        0.0000 
     28 C           0.4213   -3.5061    1.1846 C.3       1 ****        0.0000 
     29 C          -0.1530   -4.0715    0.0397 C.3       1 ****        0.0000 
     30 C          -1.5209   -4.3070   -0.0257 C.3       1 ****        0.0000 
     31 H          -1.9841   -4.6743   -0.9366 H         1 ****        0.0000 
     32 H           0.4672   -4.2828   -0.8280 H         1 ****        0.0000 
     33 C          -0.3835   -3.3021    2.3079 C.3       1 ****        0.0000 
     34 H           0.0537   -2.8794    3.2071 H         1 ****        0.0000 
     35 C          -1.7557   -3.5438    2.2607 C.3       1 ****        0.0000 
     36 H          -2.3966   -3.3184    3.1071 H         1 ****        0.0000 
     37 C          -2.3182   -3.9796    1.0684 C.3       1 ****        0.0000 
     38 O          -3.7071   -3.9433    0.9021 O.3       1 ****        0.0000 
     39 C          -3.9986   -2.8300    0.1218 C.3       1 ****        0.0000 
     40 C          -3.7412   -1.5573    0.6319 C.3       1 ****        0.0000 
     41 C          -3.7508   -0.4692   -0.2276 C.3       1 ****        0.0000 
     42 H          -3.4870    0.5123    0.1543 H         1 ****        0.0000 
     43 H          -3.4536   -1.4403    1.6711 H         1 ****        0.0000 
     44 C          -4.4208   -3.0115   -1.1926 C.3       1 ****        0.0000 
     45 H          -4.6434   -4.0113   -1.5503 H         1 ****        0.0000 
     46 C          -4.4515   -1.9099   -2.0433 C.3       1 ****        0.0000 
     47 H          -4.7147   -2.0282   -3.0896 H         1 ****        0.0000 
     48 C          -4.0568   -0.6492   -1.5824 C.3       1 ****        0.0000 
     49 C          -3.8775    0.4472   -2.5709 C.3       1 ****        0.0000 
     50 O          -4.4660    0.4567   -3.6368 O.3       1 ****        0.0000 
     51 C          -2.8988    1.5734   -2.2529 C.3       1 ****        0.0000 
     52 H          -2.7086    2.1058   -3.1899 H         1 ****        0.0000 
     53 H          -3.3816    2.2796   -1.5662 H         1 ****        0.0000 
     54 N          -1.6619    1.1399   -1.6279 N.3       1 ****        0.0000 
     55 H          -1.2345    0.2587   -1.8807 H         1 ****        0.0000 
     56 C          -1.0160    1.9466   -0.7544 C.3       1 ****        0.0000 
     57 O          -1.4730    3.0277   -0.3916 O.3       1 ****        0.0000 
     58 C           0.3726    1.5296   -0.2708 C.3       1 ****        0.0000 
     59 H           0.3719    1.6926    0.8108 H         1 ****        0.0000 
     60 C           1.4127    2.4546   -0.9312 C.3       1 ****        0.0000 
     61 H           2.4043    2.1358   -0.5925 H         1 ****        0.0000 
     62 H           1.2458    3.4717   -0.5653 H         1 ****        0.0000 
     63 C           1.3454    2.4288   -2.4667 C.3       1 ****        0.0000 
     64 H           1.2617    1.3967   -2.8291 H         1 ****        0.0000 
     65 H           0.4343    2.9474   -2.7926 H         1 ****        0.0000 
     66 C           2.5546    3.0516   -3.1250 C.3       1 ****        0.0000 
     67 C           3.2873    2.3371   -4.0767 C.3       1 ****        0.0000 
     68 H           2.9765    1.3291   -4.3375 H         1 ****        0.0000 
     69 C           4.4242    2.8879   -4.6682 C.3       1 ****        0.0000 
     70 H           4.9839    2.3133   -5.4005 H         1 ****        0.0000 
     71 C           4.8473    4.1671   -4.3100 C.3       1 ****        0.0000 
     72 H           5.7352    4.5972   -4.7638 H         1 ****        0.0000 
     73 C           4.1222    4.8911   -3.3629 C.3       1 ****        0.0000 
     74 H           4.4411    5.8894   -3.0796 H         1 ****        0.0000 
     75 C           2.9833    4.3381   -2.7784 C.3       1 ****        0.0000 
     76 H           2.4257    4.9140   -2.0445 H         1 ****        0.0000 
@<TRIPOS>BOND
     1    1    2 1    
     2    1    3 1    
     3    1    4 1    
     4    1    5 1    
     5    5    6 1    
     6    5   10 1    
     7    5   14 1    
     8    6    7 1    
     9    6    8 1    
    10    6    9 1    
    11   10   11 1    
    12   10   12 1    
    13   10   13 1    
    14   14   15 1    
    15   15   16 1    
    16   15   17 1    
    17   17   18 1    
    18   17   19 1    
    19   19   20 1    
    20   19   24 1    
    21   19   25 1    
    22   20   21 1    
    23   20   23 1    
    24   21   22 1    
    25   21   58 1    
    26   25   26 1    
    27   25   27 1    
    28   25   28 1    
    29   28   29 1    
    30   28   33 1    
    31   29   30 1    
    32   29   32 1    
    33   30   31 1    
    34   30   37 1    
    35   33   34 1    
    36   33   35 1    
    37   35   36 1    
    38   35   37 1    
    39   37   38 1    
    40   38   39 1    
    41   39   40 1    
    42   39   44 1    
    43   40   41 1    
    44   40   43 1    
    45   41   42 1    
    46   41   48 1    
    47   44   45 1    
    48   44   46 1    
    49   46   47 1    
    50   46   48 1    
    51   48   49 1    
    52   49   50 1    
    53   49   51 1    
    54   51   52 1    
    55   51   53 1    
    56   51   54 1    
    57   54   55 1    
    58   54   56 1    
    59   56   57 1    
    60   56   58 1    
    61   58   59 1    
    62   58   60 1    
    63   60   61 1    
    64   60   62 1    
    65   60   63 1    
    66   63   64 1    
    67   63   65 1    
    68   63   66 1    
    69   66   67 1    
    70   66   75 1    
    71   67   68 1    
    72   67   69 1    
    73   69   70 1    
    74   69   71 1    
    75   71   72 1    
    76   71   73 1    
    77   73   74 1    
    78   73   75 1    
    79   75   76 1    
@<TRIPOS>SUBSTRUCTURE
     1 ****        1 GROUP             0       ****    0 ROOT    
@<TRIPOS>MOLECULE
Cpd4-1000
76   79    1
SMALL
USER_CHARGES


@<TRIPOS>ATOM
      1 C           6.8700   -3.4398   -1.1198 C.3       1 ****        0.0000 
      2 H           6.0540   -4.0661   -1.4829 H         1 ****        0.0000 
      3 H           7.7973   -3.7526   -1.6075 H         1 ****        0.0000 
      4 H           6.9849   -3.5829   -0.0412 H         1 ****        0.0000 
      5 C           6.6179   -1.9667   -1.4291 C.3       1 ****        0.0000 
      6 C           6.3828   -1.7179   -2.9159 C.3       1 ****        0.0000 
      7 H           5.6106   -2.3775   -3.3130 H         1 ****        0.0000 
      8 H           6.0909   -0.6759   -3.0816 H         1 ****        0.0000 
      9 H           7.3133   -1.9018   -3.4599 H         1 ****        0.0000 
     10 C           7.7657   -1.1050   -0.9188 C.3       1 ****        0.0000 
     11 H           8.6924   -1.3859   -1.4253 H         1 ****        0.0000 
     12 H           7.5663   -0.0478   -1.1140 H         1 ****        0.0000 
     13 H           7.8986   -1.2441    0.1580 H         1 ****        0.0000 
     14 O           5.4799   -1.4804   -0.6479 O.3       1 ****        0.0000 
     15 C           4.2548   -2.0003   -0.8129 C.3       1 ****        0.0000 
     16 O           3.9421   -2.8631   -1.6171 O.3       1 ****        0.0000 
     17 N           3.3767   -1.4000    0.0407 N.3       1 ****        0.0000 
     18 H           3.7630   -0.8488    0.7970 H         1 ****        0.0000 
     19 C           2.0031   -1.8646    0.1442 C.3       1 ****        0.0000 
     20 C           1.1984   -0.6406    0.5990 C.3       1 ****        0.0000 
     21 N           0.6176    0.0976   -0.3945 N.3       1 ****        0.0000 
     22 H           0.9181   -0.1294   -1.3384 H         1 ****        0.0000 
     23 O           1.1642   -0.3230    1.7795 O.3       1 ****        0.0000 
     24 H           1.6942   -2.1721   -0.8605 H         1 ****        0.0000 
     25 C           1.8577   -3.0470    1.1176 C.3       1 ****        0.0000 
     26 H           2.2046   -2.7284    2.1049 H         1 ****        0.0000 
     27 H           2.5149   -3.8452    0.7581 H         1 ****        0.0000 
     28 C           0.4230   -3.5046    1.1795 C.3       1 ****        0.0000 
     29 C          -0.1513   -4.1513    0.0784 C.3       1 ****        0.0000 
     30 C          -1.5214   -4.3815    0.0229 C.3       1 ****        0.0000 
     31 H          -1.9810   -4.8240   -0.8554 H         1 ****        0.0000 
     32 H           0.4750   -4.4395   -0.7625 H         1 ****        0.0000 
     33 C          -0.3889   -3.1906    2.2730 C.3       1 ****        0.0000 
     34 H           0.0479   -2.7030    3.1392 H         1 ****        0.0000 
     35 C          -1.7638   -3.4262    2.2354 C.3       1 ****        0.0000 
     36 H          -2.4063   -3.1351    3.0606 H         1 ****        0.0000 
     37 C          -2.3220   -3.9648    1.0841 C.3       1 ****        0.0000 
     38 O          -3.7139   -3.9593    0.9194 O.3       1 ****        0.0000 
     39 C          -4.0292   -2.8641    0.1246 C.3       1 ****        0.0000 
     40 C          -3.9106   -1.5821    0.6620 C.3       1 ****        0.0000 
     41 C          -3.9243   -0.4880   -0.1910 C.3       1 ****        0.0000 
     42 H          -3.7606    0.5058    0.2142 H         1 ****        0.0000 
     43 H          -3.7249   -1.4587    1.7233 H         1 ****        0.0000 
     44 C          -4.3278   -3.0593   -1.2214 C.3       1 ****        0.0000 
     45 H          -4.4489   -4.0677   -1.6022 H         1 ****        0.0000 
     46 C          -4.3647   -1.9541   -2.0673 C.3       1 ****        0.0000 
     47 H          -4.5279   -2.0803   -3.1337 H         1 ****        0.0000 
     48 C          -4.0986   -0.6746   -1.5687 C.3       1 ****        0.0000 
     49 C          -3.8852    0.4377   -2.5338 C.3       1 ****        0.0000 
     50 O          -4.4063    0.4490   -3.6331 O.3       1 ****        0.0000 
     51 C          -2.9433    1.5717   -2.1380 C.3       1 ****        0.0000 
     52 H          -2.6743    2.1044   -3.0546 H         1 ****        0.0000 
     53 H          -3.4883    2.2805   -1.5005 H         1 ****        0.0000 
     54 N          -1.7592    1.1146   -1.4289 N.3       1 ****        0.0000 
     55 H          -1.5238    0.1315   -1.3862 H         1 ****        0.0000 
     56 C          -0.9213    2.0189   -0.8786 C.3       1 ****        0.0000 
     57 O          -1.1414    3.2261   -0.9294 O.3       1 ****        0.0000 
     58 C           0.3045    1.5014   -0.1259 C.3       1 ****        0.0000 
     59 H           0.0264    1.5358    0.9319 H         1 ****        0.0000 
     60 C           1.5264    2.4262   -0.3151 C.3       1 ****        0.0000 
     61 H           2.3793    1.9069    0.1370 H         1 ****        0.0000 
     62 H           1.3606    3.3375    0.2646 H         1 ****        0.0000 
     63 C           1.8555    2.8295   -1.7667 C.3       1 ****        0.0000 
     64 H           1.1308    3.5780   -2.0958 H         1 ****        0.0000 
     65 H           2.8416    3.3055   -1.7683 H         1 ****        0.0000 
     66 C           1.8374    1.6675   -2.7304 C.3       1 ****        0.0000 
     67 C           0.7444    1.4751   -3.5812 C.3       1 ****        0.0000 
     68 H          -0.0481    2.2211   -3.6008 H         1 ****        0.0000 
     69 C           0.6511    0.3403   -4.3895 C.3       1 ****        0.0000 
     70 H          -0.2100    0.2080   -5.0383 H         1 ****        0.0000 
     71 C           1.6604   -0.6200   -4.3591 C.3       1 ****        0.0000 
     72 H           1.5903   -1.5086   -4.9781 H         1 ****        0.0000 
     73 C           2.7716   -0.4285   -3.5329 C.3       1 ****        0.0000 
     74 H           3.5596   -1.1755   -3.5053 H         1 ****        0.0000 
     75 C           2.8605    0.7071   -2.7307 C.3       1 ****        0.0000 
     76 H           3.7201    0.8410   -2.0756 H         1 ****        0.0000 
@<TRIPOS>BOND
     1    1    2 1    
     2    1    3 1    
     3    1    4 1    
     4    1    5 1    
     5    5    6 1    
     6    5   10 1    
     7    5   14 1    
     8    6    7 1    
     9    6    8 1    
    10    6    9 1    
    11   10   11 1    
    12   10   12 1    
    13   10   13 1    
    14   14   15 1    
    15   15   16 1    
    16   15   17 1    
    17   17   18 1    
    18   17   19 1    
    19   19   20 1    
    20   19   24 1    
    21   19   25 1    
    22   20   21 1    
    23   20   23 1    
    24   21   22 1    
    25   21   58 1    
    26   25   26 1    
    27   25   27 1    
    28   25   28 1    
    29   28   29 1    
    30   28   33 1    
    31   29   30 1    
    32   29   32 1    
    33   30   31 1    
    34   30   37 1    
    35   33   34 1    
    36   33   35 1    
    37   35   36 1    
    38   35   37 1    
    39   37   38 1    
    40   38   39 1    
    41   39   40 1    
    42   39   44 1    
    43   40   41 1    
    44   40   43 1    
    45   41   42 1    
    46   41   48 1    
    47   44   45 1    
    48   44   46 1    
    49   46   47 1    
    50   46   48 1    
    51   48   49 1    
    52   49   50 1    
    53   49   51 1    
    54   51   52 1    
    55   51   53 1    
    56   51   54 1    
    57   54   55 1    
    58   54   56 1    
    59   56   57 1    
    60   56   58 1    
    61   58   59 1    
    62   58   60 1    
    63   60   61 1    
    64   60   62 1    
    65   60   63 1    
    66   63   64 1    
    67   63   65 1    
    68   63   66 1    
    69   66   67 1    
    70   66   75 1    
    71   67   68 1    
    72   67   69 1    
    73   69   70 1    
    74   69   71 1    
    75   71   72 1    
    76   71   73 1    
    77   73   74 1    
    78   73   75 1    
    79   75   76 1    
@<TRIPOS>SUBSTRUCTURE
     1 ****        1 GROUP             0       ****    0 ROOT    
@<TRIPOS>MOLECULE
Cpd4-1500
76   79    1
SMALL
USER_CHARGES


@<TRIPOS>ATOM
      1 C           6.5380   -0.4142   -2.0860 C.3       1 ****        0.0000 
      2 H           5.6535   -0.5709   -2.7033 H         1 ****        0.0000 
      3 H           7.3040    0.0864   -2.6857 H         1 ****        0.0000 
      4 H           6.9319   -1.3851   -1.7692 H         1 ****        0.0000 
      5 C           6.2254    0.4471   -0.8661 C.3       1 ****        0.0000 
      6 C           5.5389    1.7592   -1.2317 C.3       1 ****        0.0000 
      7 H           4.5994    1.5846   -1.7608 H         1 ****        0.0000 
      8 H           5.3375    2.3466   -0.3304 H         1 ****        0.0000 
      9 H           6.1995    2.3437   -1.8789 H         1 ****        0.0000 
     10 C           7.4926    0.7127   -0.0622 C.3       1 ****        0.0000 
     11 H           7.2570    1.2790    0.8439 H         1 ****        0.0000 
     12 H           7.9694   -0.2283    0.2244 H         1 ****        0.0000 
     13 H           8.1960    1.2929   -0.6640 H         1 ****        0.0000 
     14 O           5.3935   -0.2970    0.0825 O.3       1 ****        0.0000 
     15 C           4.1806   -0.7435   -0.2676 C.3       1 ****        0.0000 
     16 O           3.6579   -0.6237   -1.3655 O.3       1 ****        0.0000 
     17 N           3.5880   -1.3859    0.7801 N.3       1 ****        0.0000 
     18 H           4.0003   -1.2695    1.6969 H         1 ****        0.0000 
     19 C           2.2021   -1.8150    0.6793 C.3       1 ****        0.0000 
     20 C           1.2927   -0.5831    0.8357 C.3       1 ****        0.0000 
     21 N           0.8351   -0.0601   -0.3242 N.3       1 ****        0.0000 
     22 H           1.2111   -0.4147   -1.1975 H         1 ****        0.0000 
     23 O           1.0534   -0.1061    1.9428 O.3       1 ****        0.0000 
     24 H           2.0679   -2.2460   -0.3177 H         1 ****        0.0000 
     25 C           1.8876   -2.8766    1.7411 C.3       1 ****        0.0000 
     26 H           2.0100   -2.4329    2.7344 H         1 ****        0.0000 
     27 H           2.6120   -3.6900    1.6303 H         1 ****        0.0000 
     28 C           0.4747   -3.3752    1.5561 C.3       1 ****        0.0000 
     29 C           0.1868   -4.3709    0.6163 C.3       1 ****        0.0000 
     30 C          -1.1303   -4.6671    0.2629 C.3       1 ****        0.0000 
     31 H          -1.3590   -5.3928   -0.5117 H         1 ****        0.0000 
     32 H           1.0019   -4.8881    0.1160 H         1 ****        0.0000 
     33 C          -0.5865   -2.7486    2.2182 C.3       1 ****        0.0000 
     34 H          -0.3742   -1.9889    2.9646 H         1 ****        0.0000 
     35 C          -1.9028   -3.0286    1.8713 C.3       1 ****        0.0000 
     36 H          -2.7302   -2.4966    2.3309 H         1 ****        0.0000 
     37 C          -2.1582   -3.9455    0.8553 C.3       1 ****        0.0000 
     38 O          -3.4584   -4.0410    0.3553 O.3       1 ****        0.0000 
     39 C          -3.7895   -2.8767   -0.3182 C.3       1 ****        0.0000 
     40 C          -4.9361   -2.1789    0.0541 C.3       1 ****        0.0000 
     41 C          -5.1692   -0.9231   -0.5018 C.3       1 ****        0.0000 
     42 H          -6.0258   -0.3341   -0.1879 H         1 ****        0.0000 
     43 H          -5.5907   -2.5938    0.8131 H         1 ****        0.0000 
     44 C          -2.9372   -2.3872   -1.3106 C.3       1 ****        0.0000 
     45 H          -2.0670   -2.9612   -1.6087 H         1 ****        0.0000 
     46 C          -3.1651   -1.1291   -1.8414 C.3       1 ****        0.0000 
     47 H          -2.4664   -0.7321   -2.5714 H         1 ****        0.0000 
     48 C          -4.2604   -0.3698   -1.4117 C.3       1 ****        0.0000 
     49 C          -4.4169    1.0474   -1.8336 C.3       1 ****        0.0000 
     50 O          -5.4897    1.6204   -1.8102 O.3       1 ****        0.0000 
     51 C          -3.1531    1.8171   -2.2465 C.3       1 ****        0.0000 
     52 H          -2.7632    1.4252   -3.1908 H         1 ****        0.0000 
     53 H          -3.4435    2.8596   -2.3922 H         1 ****        0.0000 
     54 N          -2.0910    1.7130   -1.2615 N.3       1 ****        0.0000 
     55 H          -2.2545    2.1034   -0.3430 H         1 ****        0.0000 
     56 C          -0.8901    1.1385   -1.5123 C.3       1 ****        0.0000 
     57 O          -0.5976    0.6228   -2.5860 O.3       1 ****        0.0000 
     58 C           0.1359    1.2114   -0.3814 C.3       1 ****        0.0000 
     59 H          -0.3517    1.3552    0.5875 H         1 ****        0.0000 
     60 C           1.0940    2.3796   -0.6721 C.3       1 ****        0.0000 
     61 H           0.5057    3.3028   -0.7524 H         1 ****        0.0000 
     62 H           1.5518    2.1970   -1.6522 H         1 ****        0.0000 
     63 C           2.1670    2.5331    0.4028 C.3       1 ****        0.0000 
     64 H           1.6941    2.5606    1.3909 H         1 ****        0.0000 
     65 H           2.8031    1.6353    0.4004 H         1 ****        0.0000 
     66 C           3.0639    3.7418    0.2487 C.3       1 ****        0.0000 
     67 C           3.8197    4.1665    1.3488 C.3       1 ****        0.0000 
     68 H           3.7084    3.6480    2.2989 H         1 ****        0.0000 
     69 C           4.7148    5.2284    1.2418 C.3       1 ****        0.0000 
     70 H           5.2913    5.5379    2.1089 H         1 ****        0.0000 
     71 C           4.8664    5.8950    0.0251 C.3       1 ****        0.0000 
     72 H           5.5621    6.7230   -0.0632 H         1 ****        0.0000 
     73 C           4.1116    5.4908   -1.0736 C.3       1 ****        0.0000 
     74 H           4.2167    6.0039   -2.0243 H         1 ****        0.0000 
     75 C           3.2178    4.4241   -0.9622 C.3       1 ****        0.0000 
     76 H           2.6461    4.1230   -1.8358 H         1 ****        0.0000 
@<TRIPOS>BOND
     1    1    2 1    
     2    1    3 1    
     3    1    4 1    
     4    1    5 1    
     5    5    6 1    
     6    5   10 1    
     7    5   14 1    
     8    6    7 1    
     9    6    8 1    
    10    6    9 1    
    11   10   11 1    
    12   10   12 1    
    13   10   13 1    
    14   14   15 1    
    15   15   16 1    
    16   15   17 1    
    17   17   18 1    
    18   17   19 1    
    19   19   20 1    
    20   19   24 1    
    21   19   25 1    
    22   20   21 1    
    23   20   23 1    
    24   21   22 1    
    25   21   58 1    
    26   25   26 1    
    27   25   27 1    
    28   25   28 1    
    29   28   29 1    
    30   28   33 1    
    31   29   30 1    
    32   29   32 1    
    33   30   31 1    
    34   30   37 1    
    35   33   34 1    
    36   33   35 1    
    37   35   36 1    
    38   35   37 1    
    39   37   38 1    
    40   38   39 1    
    41   39   40 1    
    42   39   44 1    
    43   40   41 1    
    44   40   43 1    
    45   41   42 1    
    46   41   48 1    
    47   44   45 1    
    48   44   46 1    
    49   46   47 1    
    50   46   48 1    
    51   48   49 1    
    52   49   50 1    
    53   49   51 1    
    54   51   52 1    
    55   51   53 1    
    56   51   54 1    
    57   54   55 1    
    58   54   56 1    
    59   56   57 1    
    60   56   58 1    
    61   58   59 1    
    62   58   60 1    
    63   60   61 1    
    64   60   62 1    
    65   60   63 1    
    66   63   64 1    
    67   63   65 1    
    68   63   66 1    
    69   66   67 1    
    70   66   75 1    
    71   67   68 1    
    72   67   69 1    
    73   69   70 1    
    74   69   71 1    
    75   71   72 1    
    76   71   73 1    
    77   73   74 1    
    78   73   75 1    
    79   75   76 1    
@<TRIPOS>SUBSTRUCTURE
     1 ****        1 GROUP             0       ****    0 ROOT    
@<TRIPOS>MOLECULE
Cpd4-2000-MRC
76   79    1
SMALL
USER_CHARGES


@<TRIPOS>ATOM
      1 C           7.0942    0.3104   -1.7917 C.3       1 ****        0.0000 
      2 H           7.7270    0.7415   -2.5730 H         1 ****        0.0000 
      3 H           7.0930    0.9845   -0.9306 H         1 ****        0.0000 
      4 H           7.5155   -0.6530   -1.4901 H         1 ****        0.0000 
      5 C           5.6768    0.1343   -2.3203 C.3       1 ****        0.0000 
      6 C           5.6471   -0.8656   -3.4725 C.3       1 ****        0.0000 
      7 H           6.0118   -1.8408   -3.1353 H         1 ****        0.0000 
      8 H           4.6403   -0.9769   -3.8767 H         1 ****        0.0000 
      9 H           6.3070   -0.5097   -4.2691 H         1 ****        0.0000 
     10 C           5.0800    1.4846   -2.7020 C.3       1 ****        0.0000 
     11 H           4.0500    1.3831   -3.0461 H         1 ****        0.0000 
     12 H           5.1133    2.1689   -1.8496 H         1 ****        0.0000 
     13 H           5.6789    1.9152   -3.5107 H         1 ****        0.0000 
     14 O           4.9750   -0.4328   -1.1615 O.3       1 ****        0.0000 
     15 C           3.6878   -0.7782   -1.2323 C.3       1 ****        0.0000 
     16 O           2.9351   -0.5689   -2.1789 O.3       1 ****        0.0000 
     17 N           3.2918   -1.4115   -0.0947 N.3       1 ****        0.0000 
     18 H           3.9458   -1.4687    0.6754 H         1 ****        0.0000 
     19 C           1.9202   -1.8652    0.0832 C.3       1 ****        0.0000 
     20 C           1.0735   -0.6782    0.5840 C.3       1 ****        0.0000 
     21 N           0.6475    0.1661   -0.4073 N.3       1 ****        0.0000 
     22 H           1.1201    0.0362   -1.3027 H         1 ****        0.0000 
     23 O           0.8657   -0.4887    1.7728 O.3       1 ****        0.0000 
     24 H           1.5551   -2.1698   -0.9025 H         1 ****        0.0000 
     25 C           1.8608   -3.0561    1.0476 C.3       1 ****        0.0000 
     26 H           2.2269   -2.7448    2.0304 H         1 ****        0.0000 
     27 H           2.5258   -3.8337    0.6588 H         1 ****        0.0000 
     28 C           0.4376   -3.5509    1.1509 C.3       1 ****        0.0000 
     29 C          -0.1657   -4.1593    0.0443 C.3       1 ****        0.0000 
     30 C          -1.5391   -4.3721    0.0108 C.3       1 ****        0.0000 
     31 H          -2.0227   -4.7719   -0.8742 H         1 ****        0.0000 
     32 H           0.4356   -4.4178   -0.8238 H         1 ****        0.0000 
     33 C          -0.3417   -3.2860    2.2793 C.3       1 ****        0.0000 
     34 H           0.1185   -2.8293    3.1496 H         1 ****        0.0000 
     35 C          -1.7195   -3.5032    2.2644 C.3       1 ****        0.0000 
     36 H          -2.3405   -3.2301    3.1113 H         1 ****        0.0000 
     37 C          -2.3104   -3.9765    1.1005 C.3       1 ****        0.0000 
     38 O          -3.7023   -3.9128    0.9528 O.3       1 ****        0.0000 
     39 C          -3.9800   -2.8115    0.1495 C.3       1 ****        0.0000 
     40 C          -3.7328   -1.5299    0.6426 C.3       1 ****        0.0000 
     41 C          -3.7356   -0.4549   -0.2340 C.3       1 ****        0.0000 
     42 H          -3.4872    0.5355    0.1366 H         1 ****        0.0000 
     43 H          -3.4638   -1.3967    1.6845 H         1 ****        0.0000 
     44 C          -4.3817   -3.0138   -1.1681 C.3       1 ****        0.0000 
     45 H          -4.5976   -4.0191   -1.5134 H         1 ****        0.0000 
     46 C          -4.4036   -1.9260   -2.0363 C.3       1 ****        0.0000 
     47 H          -4.6524   -2.0624   -3.0841 H         1 ****        0.0000 
     48 C          -4.0229   -0.6565   -1.5903 C.3       1 ****        0.0000 
     49 C          -3.8453    0.4244   -2.5981 C.3       1 ****        0.0000 
     50 O          -4.4393    0.4138   -3.6602 O.3       1 ****        0.0000 
     51 C          -2.8683    1.5615   -2.3082 C.3       1 ****        0.0000 
     52 H          -2.6523    2.0448   -3.2653 H         1 ****        0.0000 
     53 H          -3.3708    2.3028   -1.6741 H         1 ****        0.0000 
     54 N          -1.6526    1.1538   -1.6265 N.3       1 ****        0.0000 
     55 H          -1.2742    0.2245   -1.7536 H         1 ****        0.0000 
     56 C          -1.0335    2.0003   -0.7718 C.3       1 ****        0.0000 
     57 O          -1.4598    3.1274   -0.5387 O.3       1 ****        0.0000 
     58 C           0.2398    1.5236   -0.0694 C.3       1 ****        0.0000 
     59 H          -0.0043    1.5164    0.9985 H         1 ****        0.0000 
     60 C           1.3783    2.5255   -0.3191 C.3       1 ****        0.0000 
     61 H           0.9747    3.5301   -0.1652 H         1 ****        0.0000 
     62 H           1.6921    2.4522   -1.3704 H         1 ****        0.0000 
     63 C           2.5676    2.2696    0.6041 C.3       1 ****        0.0000 
     64 H           2.2531    2.4358    1.6437 H         1 ****        0.0000 
     65 H           2.8601    1.2136    0.5473 H         1 ****        0.0000 
     66 C           3.8015    3.0971    0.3142 C.3       1 ****        0.0000 
     67 C           3.7714    4.2508   -0.4743 C.3       1 ****        0.0000 
     68 H           2.8354    4.5959   -0.9029 H         1 ****        0.0000 
     69 C           4.9420    4.9654   -0.7379 C.3       1 ****        0.0000 
     70 H           4.8989    5.8544   -1.3615 H         1 ****        0.0000 
     71 C           6.1603    4.5430   -0.2113 C.3       1 ****        0.0000 
     72 H           7.0697    5.0970   -0.4194 H         1 ****        0.0000 
     73 C           6.2003    3.3979    0.5879 C.3       1 ****        0.0000 
     74 H           7.1425    3.0567    1.0044 H         1 ****        0.0000 
     75 C           5.0316    2.6850    0.8429 C.3       1 ****        0.0000 
     76 H           5.0718    1.7813    1.4475 H         1 ****        0.0000 
@<TRIPOS>BOND
     1    1    2 1    
     2    1    3 1    
     3    1    4 1    
     4    1    5 1    
     5    5    6 1    
     6    5   10 1    
     7    5   14 1    
     8    6    7 1    
     9    6    8 1    
    10    6    9 1    
    11   10   11 1    
    12   10   12 1    
    13   10   13 1    
    14   14   15 1    
    15   15   16 1    
    16   15   17 1    
    17   17   18 1    
    18   17   19 1    
    19   19   20 1    
    20   19   24 1    
    21   19   25 1    
    22   20   21 1    
    23   20   23 1    
    24   21   22 1    
    25   21   58 1    
    26   25   26 1    
    27   25   27 1    
    28   25   28 1    
    29   28   29 1    
    30   28   33 1    
    31   29   30 1    
    32   29   32 1    
    33   30   31 1    
    34   30   37 1    
    35   33   34 1    
    36   33   35 1    
    37   35   36 1    
    38   35   37 1    
    39   37   38 1    
    40   38   39 1    
    41   39   40 1    
    42   39   44 1    
    43   40   41 1    
    44   40   43 1    
    45   41   42 1    
    46   41   48 1    
    47   44   45 1    
    48   44   46 1    
    49   46   47 1    
    50   46   48 1    
    51   48   49 1    
    52   49   50 1    
    53   49   51 1    
    54   51   52 1    
    55   51   53 1    
    56   51   54 1    
    57   54   55 1    
    58   54   56 1    
    59   56   57 1    
    60   56   58 1    
    61   58   59 1    
    62   58   60 1    
    63   60   61 1    
    64   60   62 1    
    65   60   63 1    
    66   63   64 1    
    67   63   65 1    
    68   63   66 1    
    69   66   67 1    
    70   66   75 1    
    71   67   68 1    
    72   67   69 1    
    73   69   70 1    
    74   69   71 1    
    75   71   72 1    
    76   71   73 1    
    77   73   74 1    
    78   73   75 1    
    79   75   76 1    
@<TRIPOS>SUBSTRUCTURE
     1 ****        1 GROUP             0       ****    0 ROOT    
@<TRIPOS>MOLECULE
Cpd4-2500
76   79    1
SMALL
USER_CHARGES


@<TRIPOS>ATOM
      1 C           8.0262   -1.5170   -0.3086 C.3       1 ****        0.0000 
      2 H           8.9406   -1.8827   -0.7818 H         1 ****        0.0000 
      3 H           7.8825   -0.4692   -0.5906 H         1 ****        0.0000 
      4 H           8.1454   -1.5764    0.7778 H         1 ****        0.0000 
      5 C           6.8372   -2.3562   -0.7606 C.3       1 ****        0.0000 
      6 C           7.0278   -3.8161   -0.3574 C.3       1 ****        0.0000 
      7 H           7.1315   -3.8943    0.7283 H         1 ****        0.0000 
      8 H           6.1859   -4.4285   -0.6838 H         1 ****        0.0000 
      9 H           7.9428   -4.1985   -0.8191 H         1 ****        0.0000 
     10 C           6.6121   -2.1912   -2.2608 C.3       1 ****        0.0000 
     11 H           6.3895   -1.1449   -2.4915 H         1 ****        0.0000 
     12 H           7.5263   -2.4730   -2.7923 H         1 ****        0.0000 
     13 H           5.7923   -2.8179   -2.6128 H         1 ****        0.0000 
     14 O           5.7288   -1.7689   -0.0146 O.3       1 ****        0.0000 
     15 C           4.4722   -2.2118   -0.1841 C.3       1 ****        0.0000 
     16 O           4.1377   -3.1525   -0.8898 O.3       1 ****        0.0000 
     17 N           3.5991   -1.4637    0.5402 N.3       1 ****        0.0000 
     18 H           3.9619   -0.7364    1.1474 H         1 ****        0.0000 
     19 C           2.1985   -1.8370    0.5859 C.3       1 ****        0.0000 
     20 C           1.3731   -0.5633    0.8153 C.3       1 ****        0.0000 
     21 N           0.9128    0.0384   -0.3027 N.3       1 ****        0.0000 
     22 H           1.0877   -0.3678   -1.2150 H         1 ****        0.0000 
     23 O           1.1747   -0.1246    1.9451 O.3       1 ****        0.0000 
     24 H           1.9521   -2.2634   -0.3919 H         1 ****        0.0000 
     25 C           1.8993   -2.8952    1.6666 C.3       1 ****        0.0000 
     26 H           2.0704   -2.4473    2.6502 H         1 ****        0.0000 
     27 H           2.6104   -3.7150    1.5232 H         1 ****        0.0000 
     28 C           0.4798   -3.3826    1.5229 C.3       1 ****        0.0000 
     29 C           0.1656   -4.3894    0.6042 C.3       1 ****        0.0000 
     30 C          -1.1592   -4.6779    0.2766 C.3       1 ****        0.0000 
     31 H          -1.4082   -5.4118   -0.4841 H         1 ****        0.0000 
     32 H           0.9691   -4.9178    0.0966 H         1 ****        0.0000 
     33 C          -0.5654   -2.7352    2.1930 C.3       1 ****        0.0000 
     34 H          -0.3322   -1.9672    2.9253 H         1 ****        0.0000 
     35 C          -1.8895   -3.0086    1.8725 C.3       1 ****        0.0000 
     36 H          -2.7048   -2.4615    2.3369 H         1 ****        0.0000 
     37 C          -2.1700   -3.9374    0.8748 C.3       1 ****        0.0000 
     38 O          -3.4790   -4.0233    0.3936 O.3       1 ****        0.0000 
     39 C          -3.8021   -2.8714   -0.3011 C.3       1 ****        0.0000 
     40 C          -4.9563   -2.1717    0.0454 C.3       1 ****        0.0000 
     41 C          -5.1875   -0.9238   -0.5303 C.3       1 ****        0.0000 
     42 H          -6.0503   -0.3348   -0.2359 H         1 ****        0.0000 
     43 H          -5.6197   -2.5785    0.8007 H         1 ****        0.0000 
     44 C          -2.9399   -2.3910   -1.2899 C.3       1 ****        0.0000 
     45 H          -2.0648   -2.9656   -1.5722 H         1 ****        0.0000 
     46 C          -3.1662   -1.1419   -1.8411 C.3       1 ****        0.0000 
     47 H          -2.4586   -0.7537   -2.5667 H         1 ****        0.0000 
     48 C          -4.2690   -0.3802   -1.4350 C.3       1 ****        0.0000 
     49 C          -4.4162    1.0318   -1.8755 C.3       1 ****        0.0000 
     50 O          -5.4889    1.6080   -1.8808 O.3       1 ****        0.0000 
     51 C          -3.1418    1.7955   -2.2650 C.3       1 ****        0.0000 
     52 H          -2.7236    1.3904   -3.1913 H         1 ****        0.0000 
     53 H          -3.4251    2.8362   -2.4332 H         1 ****        0.0000 
     54 N          -2.1118    1.7038   -1.2447 N.3       1 ****        0.0000 
     55 H          -2.3086    2.1031   -0.3363 H         1 ****        0.0000 
     56 C          -0.9049    1.1246   -1.4424 C.3       1 ****        0.0000 
     57 O          -0.5727    0.5899   -2.4958 O.3       1 ****        0.0000 
     58 C           0.0790    1.2244   -0.2735 C.3       1 ****        0.0000 
     59 H          -0.4560    1.2235    0.6833 H         1 ****        0.0000 
     60 C           0.8620    2.5413   -0.4221 C.3       1 ****        0.0000 
     61 H           0.1270    3.3445   -0.5469 H         1 ****        0.0000 
     62 H           1.4370    2.4978   -1.3541 H         1 ****        0.0000 
     63 C           1.7556    2.8950    0.7727 C.3       1 ****        0.0000 
     64 H           1.9399    3.9758    0.7308 H         1 ****        0.0000 
     65 H           1.2023    2.7130    1.7005 H         1 ****        0.0000 
     66 C           3.1063    2.2159    0.8686 C.3       1 ****        0.0000 
     67 C           3.5831    1.8043    2.1186 C.3       1 ****        0.0000 
     68 H           2.9314    1.8806    2.9838 H         1 ****        0.0000 
     69 C           4.8738    1.2936    2.2649 C.3       1 ****        0.0000 
     70 H           5.2237    0.9849    3.2466 H         1 ****        0.0000 
     71 C           5.7077    1.1706    1.1542 C.3       1 ****        0.0000 
     72 H           6.7047    0.7561    1.2602 H         1 ****        0.0000 
     73 C           5.2369    1.5580   -0.1010 C.3       1 ****        0.0000 
     74 H           5.8717    1.4497   -0.9753 H         1 ****        0.0000 
     75 C           3.9518    2.0807   -0.2394 C.3       1 ****        0.0000 
     76 H           3.6112    2.3918   -1.2237 H         1 ****        0.0000 
@<TRIPOS>BOND
     1    1    2 1    
     2    1    3 1    
     3    1    4 1    
     4    1    5 1    
     5    5    6 1    
     6    5   10 1    
     7    5   14 1    
     8    6    7 1    
     9    6    8 1    
    10    6    9 1    
    11   10   11 1    
    12   10   12 1    
    13   10   13 1    
    14   14   15 1    
    15   15   16 1    
    16   15   17 1    
    17   17   18 1    
    18   17   19 1    
    19   19   20 1    
    20   19   24 1    
    21   19   25 1    
    22   20   21 1    
    23   20   23 1    
    24   21   22 1    
    25   21   58 1    
    26   25   26 1    
    27   25   27 1    
    28   25   28 1    
    29   28   29 1    
    30   28   33 1    
    31   29   30 1    
    32   29   32 1    
    33   30   31 1    
    34   30   37 1    
    35   33   34 1    
    36   33   35 1    
    37   35   36 1    
    38   35   37 1    
    39   37   38 1    
    40   38   39 1    
    41   39   40 1    
    42   39   44 1    
    43   40   41 1    
    44   40   43 1    
    45   41   42 1    
    46   41   48 1    
    47   44   45 1    
    48   44   46 1    
    49   46   47 1    
    50   46   48 1    
    51   48   49 1    
    52   49   50 1    
    53   49   51 1    
    54   51   52 1    
    55   51   53 1    
    56   51   54 1    
    57   54   55 1    
    58   54   56 1    
    59   56   57 1    
    60   56   58 1    
    61   58   59 1    
    62   58   60 1    
    63   60   61 1    
    64   60   62 1    
    65   60   63 1    
    66   63   64 1    
    67   63   65 1    
    68   63   66 1    
    69   66   67 1    
    70   66   75 1    
    71   67   68 1    
    72   67   69 1    
    73   69   70 1    
    74   69   71 1    
    75   71   72 1    
    76   71   73 1    
    77   73   74 1    
    78   73   75 1    
    79   75   76 1    
@<TRIPOS>SUBSTRUCTURE
     1 ****        1 GROUP             0       ****    0 ROOT    
@<TRIPOS>MOLECULE
Cpd4-3000-MEC
76   79    1
SMALL
USER_CHARGES


@<TRIPOS>ATOM
      1 C           7.4950    0.8320   -0.0000 C.3       1 ****        0.0000 
      2 H           7.2170    1.3910    0.8980 H         1 ****        0.0000 
      3 H           8.0010   -0.0890    0.3010 H         1 ****        0.0000 
      4 H           8.1890    1.4370   -0.5890 H         1 ****        0.0000 
      5 C           6.2580    0.5120   -0.8310 C.3       1 ****        0.0000 
      6 C           6.6330   -0.3150   -2.0570 C.3       1 ****        0.0000 
      7 H           7.3540    0.2460   -2.6580 H         1 ****        0.0000 
      8 H           7.1030   -1.2540   -1.7460 H         1 ****        0.0000 
      9 H           5.7590   -0.5360   -2.6700 H         1 ****        0.0000 
     10 C           5.5120    1.7920   -1.1980 C.3       1 ****        0.0000 
     11 H           4.6390    1.5810   -1.8160 H         1 ****        0.0000 
     12 H           5.1940    2.3140   -0.2910 H         1 ****        0.0000 
     13 H           6.1870    2.4500   -1.7540 H         1 ****        0.0000 
     14 O           5.4520   -0.2910    0.0890 O.3       1 ****        0.0000 
     15 C           4.2480   -0.7540   -0.2760 C.3       1 ****        0.0000 
     16 O           3.7190   -0.6010   -1.3660 O.3       1 ****        0.0000 
     17 N           3.6790   -1.4610    0.7440 N.3       1 ****        0.0000 
     18 H           4.0740   -1.3320    1.6670 H         1 ****        0.0000 
     19 C           2.2820   -1.8460    0.6430 C.3       1 ****        0.0000 
     20 C           1.3990   -0.6000    0.8310 C.3       1 ****        0.0000 
     21 N           0.7520   -0.1610   -0.2680 N.3       1 ****        0.0000 
     22 H           1.0030   -0.5310   -1.1790 H         1 ****        0.0000 
     23 O           1.3160   -0.0470    1.9270 O.3       1 ****        0.0000 
     24 H           2.1270   -2.2630   -0.3570 H         1 ****        0.0000 
     25 C           1.9450   -2.9110    1.6970 C.3       1 ****        0.0000 
     26 H           2.0940   -2.4790    2.6920 H         1 ****        0.0000 
     27 H           2.6430   -3.7440    1.5710 H         1 ****        0.0000 
     28 C           0.5160   -3.3670    1.5250 C.3       1 ****        0.0000 
     29 C           0.1960   -4.3890    0.6270 C.3       1 ****        0.0000 
     30 C          -1.1310   -4.6620    0.2910 C.3       1 ****        0.0000 
     31 H          -1.3850   -5.4140   -0.4490 H         1 ****        0.0000 
     32 H           0.9930   -4.9490    0.1460 H         1 ****        0.0000 
     33 C          -0.5240   -2.6780    2.1610 C.3       1 ****        0.0000 
     34 H          -0.2870   -1.8960    2.8770 H         1 ****        0.0000 
     35 C          -1.8490   -2.9350    1.8310 C.3       1 ****        0.0000 
     36 H          -2.6580   -2.3610    2.2720 H         1 ****        0.0000 
     37 C          -2.1360   -3.8910    0.8600 C.3       1 ****        0.0000 
     38 O          -3.4440   -3.9900    0.3840 O.3       1 ****        0.0000 
     39 C          -3.7880   -2.8440   -0.3120 C.3       1 ****        0.0000 
     40 C          -4.9390   -2.1490    0.0500 C.3       1 ****        0.0000 
     41 C          -5.1860   -0.9060   -0.5300 C.3       1 ****        0.0000 
     42 H          -6.0440   -0.3170   -0.2220 H         1 ****        0.0000 
     43 H          -5.5860   -2.5530    0.8210 H         1 ****        0.0000 
     44 C          -2.9450   -2.3680   -1.3190 C.3       1 ****        0.0000 
     45 H          -2.0710   -2.9410   -1.6100 H         1 ****        0.0000 
     46 C          -3.1860   -1.1230   -1.8740 C.3       1 ****        0.0000 
     47 H          -2.4930   -0.7340   -2.6130 H         1 ****        0.0000 
     48 C          -4.2850   -0.3640   -1.4530 C.3       1 ****        0.0000 
     49 C          -4.4390    1.0500   -1.8870 C.3       1 ****        0.0000 
     50 O          -5.5140    1.6180   -1.9050 O.3       1 ****        0.0000 
     51 C          -3.1590    1.8230   -2.2430 C.3       1 ****        0.0000 
     52 H          -2.7430    1.4530   -3.1850 H         1 ****        0.0000 
     53 H          -3.4370    2.8720   -2.3690 H         1 ****        0.0000 
     54 N          -2.1360    1.6800   -1.2240 N.3       1 ****        0.0000 
     55 H          -2.3240    2.0590   -0.3040 H         1 ****        0.0000 
     56 C          -0.9330    1.0990   -1.4410 C.3       1 ****        0.0000 
     57 O          -0.5910    0.6240   -2.5210 O.3       1 ****        0.0000 
     58 C           0.0190    1.0920   -0.2480 C.3       1 ****        0.0000 
     59 H          -0.5440    1.1300    0.6910 H         1 ****        0.0000 
     60 C           0.9860    2.2890   -0.3220 C.3       1 ****        0.0000 
     61 H           1.5840    2.1860   -1.2350 H         1 ****        0.0000 
     62 H           1.6730    2.1920    0.5250 H         1 ****        0.0000 
     63 C           0.2990    3.6590   -0.3150 C.3       1 ****        0.0000 
     64 H           1.0790    4.4290   -0.2800 H         1 ****        0.0000 
     65 H          -0.2350    3.8110   -1.2600 H         1 ****        0.0000 
     66 C          -0.6690    3.8800    0.8310 C.3       1 ****        0.0000 
     67 C          -0.3830    3.4400    2.1290 C.3       1 ****        0.0000 
     68 H           0.5410    2.9030    2.3280 H         1 ****        0.0000 
     69 C          -1.2810    3.6630    3.1720 C.3       1 ****        0.0000 
     70 H          -1.0420    3.3100    4.1710 H         1 ****        0.0000 
     71 C          -2.4840    4.3290    2.9360 C.3       1 ****        0.0000 
     72 H          -3.1830    4.4990    3.7490 H         1 ****        0.0000 
     73 C          -2.7830    4.7700    1.6480 C.3       1 ****        0.0000 
     74 H          -3.7170    5.2860    1.4500 H         1 ****        0.0000 
     75 C          -1.8810    4.5440    0.6070 C.3       1 ****        0.0000 
     76 H          -2.1220    4.8870   -0.3980 H         1 ****        0.0000 
@<TRIPOS>BOND
     1    1    2 1    
     2    1    3 1    
     3    1    4 1    
     4    1    5 1    
     5    5    6 1    
     6    5   10 1    
     7    5   14 1    
     8    6    7 1    
     9    6    8 1    
    10    6    9 1    
    11   10   11 1    
    12   10   12 1    
    13   10   13 1    
    14   14   15 1    
    15   15   16 1    
    16   15   17 1    
    17   17   18 1    
    18   17   19 1    
    19   19   20 1    
    20   19   24 1    
    21   19   25 1    
    22   20   21 1    
    23   20   23 1    
    24   21   22 1    
    25   21   58 1    
    26   25   26 1    
    27   25   27 1    
    28   25   28 1    
    29   28   29 1    
    30   28   33 1    
    31   29   30 1    
    32   29   32 1    
    33   30   31 1    
    34   30   37 1    
    35   33   34 1    
    36   33   35 1    
    37   35   36 1    
    38   35   37 1    
    39   37   38 1    
    40   38   39 1    
    41   39   40 1    
    42   39   44 1    
    43   40   41 1    
    44   40   43 1    
    45   41   42 1    
    46   41   48 1    
    47   44   45 1    
    48   44   46 1    
    49   46   47 1    
    50   46   48 1    
    51   48   49 1    
    52   49   50 1    
    53   49   51 1    
    54   51   52 1    
    55   51   53 1    
    56   51   54 1    
    57   54   55 1    
    58   54   56 1    
    59   56   57 1    
    60   56   58 1    
    61   58   59 1    
    62   58   60 1    
    63   60   61 1    
    64   60   62 1    
    65   60   63 1    
    66   63   64 1    
    67   63   65 1    
    68   63   66 1    
    69   66   67 1    
    70   66   75 1    
    71   67   68 1    
    72   67   69 1    
    73   69   70 1    
    74   69   71 1    
    75   71   72 1    
    76   71   73 1    
    77   73   74 1    
    78   73   75 1    
    79   75   76 1    
@<TRIPOS>SUBSTRUCTURE
     1 ****        1 GROUP             0       ****    0 ROOT    
@<TRIPOS>MOLECULE
Cpd4-3500
76   79    1
SMALL
USER_CHARGES


@<TRIPOS>ATOM
      1 C           7.0946    0.3090   -1.7927 C.3       1 ****        0.0000 
      2 H           7.0940    0.9843   -0.9320 H         1 ****        0.0000 
      3 H           7.5159   -0.6545   -1.4911 H         1 ****        0.0000 
      4 H           7.7265    0.7395   -2.5740 H         1 ****        0.0000 
      5 C           5.6771    0.1329   -2.3211 C.3       1 ****        0.0000 
      6 C           5.6463   -0.8671   -3.4723 C.3       1 ****        0.0000 
      7 H           6.0109   -1.8424   -3.1351 H         1 ****        0.0000 
      8 H           4.6394   -0.9787   -3.8773 H         1 ****        0.0000 
      9 H           6.3065   -0.5122   -4.2686 H         1 ****        0.0000 
     10 C           5.0804    1.4830   -2.7037 C.3       1 ****        0.0000 
     11 H           5.6793    1.9135   -3.5125 H         1 ****        0.0000 
     12 H           4.0499    1.3827   -3.0470 H         1 ****        0.0000 
     13 H           5.1148    2.1678   -1.8514 H         1 ****        0.0000 
     14 O           4.9749   -0.4330   -1.1615 O.3       1 ****        0.0000 
     15 C           3.6873   -0.7777   -1.2334 C.3       1 ****        0.0000 
     16 O           2.9358   -0.5685   -2.1787 O.3       1 ****        0.0000 
     17 N           3.2919   -1.4118   -0.0954 N.3       1 ****        0.0000 
     18 H           3.9464   -1.4699    0.6748 H         1 ****        0.0000 
     19 C           1.9202   -1.8651    0.0836 C.3       1 ****        0.0000 
     20 C           1.0738   -0.6783    0.5836 C.3       1 ****        0.0000 
     21 N           0.6477    0.1660   -0.4077 N.3       1 ****        0.0000 
     22 H           1.1200    0.0363   -1.3022 H         1 ****        0.0000 
     23 O           0.8661   -0.4888    1.7724 O.3       1 ****        0.0000 
     24 H           1.5551   -2.1700   -0.9030 H         1 ****        0.0000 
     25 C           1.8609   -3.0560    1.0480 C.3       1 ****        0.0000 
     26 H           2.2271   -2.7447    2.0307 H         1 ****        0.0000 
     27 H           2.5258   -3.8340    0.6582 H         1 ****        0.0000 
     28 C           0.4376   -3.5507    1.1516 C.3       1 ****        0.0000 
     29 C          -0.1658   -4.1591    0.0450 C.3       1 ****        0.0000 
     30 C          -1.5392   -4.3721    0.0108 C.3       1 ****        0.0000 
     31 H          -2.0229   -4.7718   -0.8742 H         1 ****        0.0000 
     32 H           0.4354   -4.4179   -0.8242 H         1 ****        0.0000 
     33 C          -0.3414   -3.2860    2.2790 C.3       1 ****        0.0000 
     34 H           0.1175   -2.8286    3.1500 H         1 ****        0.0000 
     35 C          -1.7193   -3.5031    2.2644 C.3       1 ****        0.0000 
     36 H          -2.3414   -3.2298    3.1102 H         1 ****        0.0000 
     37 C          -2.3112   -3.9768    1.1006 C.3       1 ****        0.0000 
     38 O          -3.7022   -3.9126    0.9530 O.3       1 ****        0.0000 
     39 C          -3.9799   -2.8116    0.1487 C.3       1 ****        0.0000 
     40 C          -3.7326   -1.5296    0.6428 C.3       1 ****        0.0000 
     41 C          -3.7364   -0.4551   -0.2338 C.3       1 ****        0.0000 
     42 H          -3.4878    0.5352    0.1368 H         1 ****        0.0000 
     43 H          -3.4644   -1.3969    1.6847 H         1 ****        0.0000 
     44 C          -4.3818   -3.0139   -1.1688 C.3       1 ****        0.0000 
     45 H          -4.5974   -4.0200   -1.5137 H         1 ****        0.0000 
     46 C          -4.4033   -1.9269   -2.0367 C.3       1 ****        0.0000 
     47 H          -4.6527   -2.0625   -3.0847 H         1 ****        0.0000 
     48 C          -4.0230   -0.6563   -1.5901 C.3       1 ****        0.0000 
     49 C          -3.8454    0.4246   -2.5979 C.3       1 ****        0.0000 
     50 O          -4.4382    0.4133   -3.6607 O.3       1 ****        0.0000 
     51 C          -2.8693    1.5615   -2.3071 C.3       1 ****        0.0000 
     52 H          -2.6516    2.0456   -3.2644 H         1 ****        0.0000 
     53 H          -3.3708    2.3032   -1.6730 H         1 ****        0.0000 
     54 N          -1.6526    1.1541   -1.6257 N.3       1 ****        0.0000 
     55 H          -1.2742    0.2245   -1.7537 H         1 ****        0.0000 
     56 C          -1.0333    2.0003   -0.7721 C.3       1 ****        0.0000 
     57 O          -1.4599    3.1283   -0.5392 O.3       1 ****        0.0000 
     58 C           0.2401    1.5235   -0.0698 C.3       1 ****        0.0000 
     59 H          -0.0043    1.5172    0.9979 H         1 ****        0.0000 
     60 C           1.3786    2.5253   -0.3196 C.3       1 ****        0.0000 
     61 H           0.9751    3.5299   -0.1657 H         1 ****        0.0000 
     62 H           1.6923    2.4520   -1.3710 H         1 ****        0.0000 
     63 C           2.5681    2.2694    0.6034 C.3       1 ****        0.0000 
     64 H           2.2546    2.4360    1.6429 H         1 ****        0.0000 
     65 H           2.8604    1.2133    0.5466 H         1 ****        0.0000 
     66 C           3.8021    3.0965    0.3123 C.3       1 ****        0.0000 
     67 C           5.0322    2.6843    0.8409 C.3       1 ****        0.0000 
     68 H           5.0723    1.7808    1.4464 H         1 ****        0.0000 
     69 C           6.2004    3.3982    0.5864 C.3       1 ****        0.0000 
     70 H           7.1440    3.0563    1.0021 H         1 ****        0.0000 
     71 C           6.1609    4.5422   -0.2135 C.3       1 ****        0.0000 
     72 H           7.0703    5.0961   -0.4217 H         1 ****        0.0000 
     73 C           4.9434    4.9651   -0.7400 C.3       1 ****        0.0000 
     74 H           4.8994    5.8537   -1.3635 H         1 ****        0.0000 
     75 C           3.7719    4.2501   -0.4762 C.3       1 ****        0.0000 
     76 H           2.8359    4.5953   -0.9046 H         1 ****        0.0000 
@<TRIPOS>BOND
     1    1    2 1    
     2    1    3 1    
     3    1    4 1    
     4    1    5 1    
     5    5    6 1    
     6    5   10 1    
     7    5   14 1    
     8    6    7 1    
     9    6    8 1    
    10    6    9 1    
    11   10   11 1    
    12   10   12 1    
    13   10   13 1    
    14   14   15 1    
    15   15   16 1    
    16   15   17 1    
    17   17   18 1    
    18   17   19 1    
    19   19   20 1    
    20   19   24 1    
    21   19   25 1    
    22   20   21 1    
    23   20   23 1    
    24   21   22 1    
    25   21   58 1    
    26   25   26 1    
    27   25   27 1    
    28   25   28 1    
    29   28   29 1    
    30   28   33 1    
    31   29   30 1    
    32   29   32 1    
    33   30   31 1    
    34   30   37 1    
    35   33   34 1    
    36   33   35 1    
    37   35   36 1    
    38   35   37 1    
    39   37   38 1    
    40   38   39 1    
    41   39   40 1    
    42   39   44 1    
    43   40   41 1    
    44   40   43 1    
    45   41   42 1    
    46   41   48 1    
    47   44   45 1    
    48   44   46 1    
    49   46   47 1    
    50   46   48 1    
    51   48   49 1    
    52   49   50 1    
    53   49   51 1    
    54   51   52 1    
    55   51   53 1    
    56   51   54 1    
    57   54   55 1    
    58   54   56 1    
    59   56   57 1    
    60   56   58 1    
    61   58   59 1    
    62   58   60 1    
    63   60   61 1    
    64   60   62 1    
    65   60   63 1    
    66   63   64 1    
    67   63   65 1    
    68   63   66 1    
    69   66   67 1    
    70   66   75 1    
    71   67   68 1    
    72   67   69 1    
    73   69   70 1    
    74   69   71 1    
    75   71   72 1    
    76   71   73 1    
    77   73   74 1    
    78   73   75 1    
    79   75   76 1    
@<TRIPOS>SUBSTRUCTURE
     1 ****        1 GROUP             0       ****    0 ROOT    
@<TRIPOS>MOLECULE
Cpd4-4000
76   79    1
SMALL
USER_CHARGES


@<TRIPOS>ATOM
      1 C           5.8990   -3.8056   -2.5052 C.3       1 ****        0.0000 
      2 H           6.2476   -3.9564   -1.4793 H         1 ****        0.0000 
      3 H           4.9694   -4.3562   -2.6537 H         1 ****        0.0000 
      4 H           6.6572   -4.2043   -3.1869 H         1 ****        0.0000 
      5 C           5.7132   -2.3170   -2.7826 C.3       1 ****        0.0000 
      6 C           5.1473   -2.0502   -4.1744 C.3       1 ****        0.0000 
      7 H           4.2220   -2.6033   -4.3393 H         1 ****        0.0000 
      8 H           4.9586   -0.9803   -4.3040 H         1 ****        0.0000 
      9 H           5.8813   -2.3607   -4.9230 H         1 ****        0.0000 
     10 C           7.0255   -1.5669   -2.5857 C.3       1 ****        0.0000 
     11 H           7.3983   -1.7111   -1.5681 H         1 ****        0.0000 
     12 H           7.7747   -1.9387   -3.2904 H         1 ****        0.0000 
     13 H           6.8823   -0.4961   -2.7609 H         1 ****        0.0000 
     14 O           4.8513   -1.7211   -1.7633 O.3       1 ****        0.0000 
     15 C           3.5799   -2.1203   -1.6127 C.3       1 ****        0.0000 
     16 O           3.0129   -2.9755   -2.2721 O.3       1 ****        0.0000 
     17 N           2.9806   -1.4059   -0.6111 N.3       1 ****        0.0000 
     18 H           3.5995   -0.8821   -0.0005 H         1 ****        0.0000 
     19 C           1.6916   -1.8336   -0.1064 C.3       1 ****        0.0000 
     20 C           0.9067   -0.6124    0.3964 C.3       1 ****        0.0000 
     21 N           0.8602    0.4349   -0.4801 N.3       1 ****        0.0000 
     22 H           1.5517    0.4274   -1.2231 H         1 ****        0.0000 
     23 O           0.3398   -0.5935    1.4781 O.3       1 ****        0.0000 
     24 H           1.1448   -2.2156   -0.9766 H         1 ****        0.0000 
     25 C           1.7658   -2.9646    0.9411 C.3       1 ****        0.0000 
     26 H           2.1585   -2.5717    1.8845 H         1 ****        0.0000 
     27 H           2.4696   -3.7095    0.5540 H         1 ****        0.0000 
     28 C           0.3914   -3.5653    1.1276 C.3       1 ****        0.0000 
     29 C          -0.2174   -4.2084    0.0441 C.3       1 ****        0.0000 
     30 C          -1.5882   -4.4424    0.0345 C.3       1 ****        0.0000 
     31 H          -2.0822   -4.8440   -0.8442 H         1 ****        0.0000 
     32 H           0.3724   -4.4512   -0.8391 H         1 ****        0.0000 
     33 C          -0.3655   -3.3329    2.2766 C.3       1 ****        0.0000 
     34 H           0.0987   -2.8575    3.1355 H         1 ****        0.0000 
     35 C          -1.7401   -3.5696    2.2872 C.3       1 ****        0.0000 
     36 H          -2.3508   -3.2913    3.1413 H         1 ****        0.0000 
     37 C          -2.3471   -4.0335    1.1282 C.3       1 ****        0.0000 
     38 O          -3.7357   -3.9173    0.9745 O.3       1 ****        0.0000 
     39 C          -3.9569   -2.8108    0.1593 C.3       1 ****        0.0000 
     40 C          -3.6341   -1.5359    0.6309 C.3       1 ****        0.0000 
     41 C          -3.5970   -0.4712   -0.2570 C.3       1 ****        0.0000 
     42 H          -3.3015    0.5111    0.1019 H         1 ****        0.0000 
     43 H          -3.3415   -1.4038    1.6668 H         1 ****        0.0000 
     44 C          -4.3794   -3.0073   -1.1530 C.3       1 ****        0.0000 
     45 H          -4.6493   -4.0048   -1.4837 H         1 ****        0.0000 
     46 C          -4.3536   -1.9314   -2.0341 C.3       1 ****        0.0000 
     47 H          -4.6213   -2.0668   -3.0775 H         1 ****        0.0000 
     48 C          -3.9098   -0.6732   -1.6078 C.3       1 ****        0.0000 
     49 C          -3.7216    0.3919   -2.6286 C.3       1 ****        0.0000 
     50 O          -4.2789    0.3451   -3.7108 O.3       1 ****        0.0000 
     51 C          -2.7990    1.5760   -2.3354 C.3       1 ****        0.0000 
     52 H          -2.6203    2.0718   -3.2932 H         1 ****        0.0000 
     53 H          -3.3310    2.2798   -1.6855 H         1 ****        0.0000 
     54 N          -1.5482    1.2579   -1.6721 N.3       1 ****        0.0000 
     55 H          -0.9327    0.5507   -2.0524 H         1 ****        0.0000 
     56 C          -1.1257    1.9672   -0.5997 C.3       1 ****        0.0000 
     57 O          -1.8103    2.8319   -0.0619 O.3       1 ****        0.0000 
     58 C           0.2923    1.7087   -0.0759 C.3       1 ****        0.0000 
     59 H           0.1790    1.6847    1.0131 H         1 ****        0.0000 
     60 C           1.1977    2.8873   -0.4731 C.3       1 ****        0.0000 
     61 H           0.5736    3.7791   -0.5814 H         1 ****        0.0000 
     62 H           1.6459    2.6874   -1.4556 H         1 ****        0.0000 
     63 C           2.2888    3.2010    0.5620 C.3       1 ****        0.0000 
     64 H           2.8270    4.0924    0.2239 H         1 ****        0.0000 
     65 H           1.7984    3.4654    1.5051 H         1 ****        0.0000 
     66 C           3.2905    2.0970    0.8177 C.3       1 ****        0.0000 
     67 C           4.3914    1.9274   -0.0322 C.3       1 ****        0.0000 
     68 H           4.5046    2.5812   -0.8938 H         1 ****        0.0000 
     69 C           5.3532    0.9522    0.2265 C.3       1 ****        0.0000 
     70 H           6.2011    0.8360   -0.4405 H         1 ****        0.0000 
     71 C           5.2270    0.1240    1.3447 C.3       1 ****        0.0000 
     72 H           5.9787   -0.6321    1.5508 H         1 ****        0.0000 
     73 C           4.1222    0.2676    2.1853 C.3       1 ****        0.0000 
     74 H           4.0088   -0.3774    3.0531 H         1 ****        0.0000 
     75 C           3.1629    1.2471    1.9226 C.3       1 ****        0.0000 
     76 H           2.3112    1.3590    2.5887 H         1 ****        0.0000 
@<TRIPOS>BOND
     1    1    2 1    
     2    1    3 1    
     3    1    4 1    
     4    1    5 1    
     5    5    6 1    
     6    5   10 1    
     7    5   14 1    
     8    6    7 1    
     9    6    8 1    
    10    6    9 1    
    11   10   11 1    
    12   10   12 1    
    13   10   13 1    
    14   14   15 1    
    15   15   16 1    
    16   15   17 1    
    17   17   18 1    
    18   17   19 1    
    19   19   20 1    
    20   19   24 1    
    21   19   25 1    
    22   20   21 1    
    23   20   23 1    
    24   21   22 1    
    25   21   58 1    
    26   25   26 1    
    27   25   27 1    
    28   25   28 1    
    29   28   29 1    
    30   28   33 1    
    31   29   30 1    
    32   29   32 1    
    33   30   31 1    
    34   30   37 1    
    35   33   34 1    
    36   33   35 1    
    37   35   36 1    
    38   35   37 1    
    39   37   38 1    
    40   38   39 1    
    41   39   40 1    
    42   39   44 1    
    43   40   41 1    
    44   40   43 1    
    45   41   42 1    
    46   41   48 1    
    47   44   45 1    
    48   44   46 1    
    49   46   47 1    
    50   46   48 1    
    51   48   49 1    
    52   49   50 1    
    53   49   51 1    
    54   51   52 1    
    55   51   53 1    
    56   51   54 1    
    57   54   55 1    
    58   54   56 1    
    59   56   57 1    
    60   56   58 1    
    61   58   59 1    
    62   58   60 1    
    63   60   61 1    
    64   60   62 1    
    65   60   63 1    
    66   63   64 1    
    67   63   65 1    
    68   63   66 1    
    69   66   67 1    
    70   66   75 1    
    71   67   68 1    
    72   67   69 1    
    73   69   70 1    
    74   69   71 1    
    75   71   72 1    
    76   71   73 1    
    77   73   74 1    
    78   73   75 1    
    79   75   76 1    
@<TRIPOS>SUBSTRUCTURE
     1 ****        1 GROUP             0       ****    0 ROOT    
@<TRIPOS>MOLECULE
Cpd4-4500
76   79    1
SMALL
USER_CHARGES


@<TRIPOS>ATOM
      1 C           5.6471   -0.8642   -3.4719 C.3       1 ****        0.0000 
      2 H           6.3075   -0.5091   -4.2681 H         1 ****        0.0000 
      3 H           6.0109   -1.8401   -3.1357 H         1 ****        0.0000 
      4 H           4.6403   -0.9755   -3.8763 H         1 ****        0.0000 
      5 C           5.6770    0.1347   -2.3194 C.3       1 ****        0.0000 
      6 C           5.0802    1.4851   -2.7010 C.3       1 ****        0.0000 
      7 H           5.1144    2.1698   -1.8487 H         1 ****        0.0000 
      8 H           5.6784    1.9150   -3.5105 H         1 ****        0.0000 
      9 H           4.0502    1.3839   -3.0443 H         1 ****        0.0000 
     10 C           7.0945    0.3106   -1.7916 C.3       1 ****        0.0000 
     11 H           7.0931    0.9849   -0.9295 H         1 ****        0.0000 
     12 H           7.5158   -0.6531   -1.4910 H         1 ****        0.0000 
     13 H           7.7264    0.7416   -2.5718 H         1 ****        0.0000 
     14 O           4.9752   -0.4324   -1.1607 O.3       1 ****        0.0000 
     15 C           3.6876   -0.7773   -1.2329 C.3       1 ****        0.0000 
     16 O           2.9354   -0.5685   -2.1783 O.3       1 ****        0.0000 
     17 N           3.2919   -1.4112   -0.0941 N.3       1 ****        0.0000 
     18 H           3.9458   -1.4688    0.6750 H         1 ****        0.0000 
     19 C           1.9203   -1.8650    0.0836 C.3       1 ****        0.0000 
     20 C           1.0736   -0.6783    0.5835 C.3       1 ****        0.0000 
     21 N           0.6476    0.1663   -0.4069 N.3       1 ****        0.0000 
     22 H           1.1202    0.0365   -1.3023 H         1 ****        0.0000 
     23 O           0.8656   -0.4887    1.7732 O.3       1 ****        0.0000 
     24 H           1.5553   -2.1696   -0.9022 H         1 ****        0.0000 
     25 C           1.8608   -3.0560    1.0479 C.3       1 ****        0.0000 
     26 H           2.2268   -2.7447    2.0307 H         1 ****        0.0000 
     27 H           2.5260   -3.8338    0.6582 H         1 ****        0.0000 
     28 C           0.4376   -3.5508    1.1510 C.3       1 ****        0.0000 
     29 C          -0.1655   -4.1592    0.0443 C.3       1 ****        0.0000 
     30 C          -1.5389   -4.3721    0.0107 C.3       1 ****        0.0000 
     31 H          -2.0224   -4.7718   -0.8745 H         1 ****        0.0000 
     32 H           0.4354   -4.4168   -0.8241 H         1 ****        0.0000 
     33 C          -0.3418   -3.2860    2.2793 C.3       1 ****        0.0000 
     34 H           0.1183   -2.8294    3.1497 H         1 ****        0.0000 
     35 C          -1.7196   -3.5033    2.2643 C.3       1 ****        0.0000 
     36 H          -2.3407   -3.2303    3.1112 H         1 ****        0.0000 
     37 C          -2.3112   -3.9769    1.1004 C.3       1 ****        0.0000 
     38 O          -3.7023   -3.9127    0.9534 O.3       1 ****        0.0000 
     39 C          -3.9799   -2.8116    0.1492 C.3       1 ****        0.0000 
     40 C          -3.7328   -1.5299    0.6424 C.3       1 ****        0.0000 
     41 C          -3.7356   -0.4546   -0.2332 C.3       1 ****        0.0000 
     42 H          -3.4881    0.5350    0.1367 H         1 ****        0.0000 
     43 H          -3.4640   -1.3966    1.6853 H         1 ****        0.0000 
     44 C          -4.3823   -3.0142   -1.1684 C.3       1 ****        0.0000 
     45 H          -4.5983   -4.0192   -1.5128 H         1 ****        0.0000 
     46 C          -4.4042   -1.9264   -2.0365 C.3       1 ****        0.0000 
     47 H          -4.6519   -2.0623   -3.0844 H         1 ****        0.0000 
     48 C          -4.0227   -0.6564   -1.5904 C.3       1 ****        0.0000 
     49 C          -3.8450    0.4246   -2.5981 C.3       1 ****        0.0000 
     50 O          -4.4385    0.4131   -3.6600 O.3       1 ****        0.0000 
     51 C          -2.8690    1.5613   -2.3080 C.3       1 ****        0.0000 
     52 H          -2.6521    2.0453   -3.2642 H         1 ****        0.0000 
     53 H          -3.3707    2.3029   -1.6740 H         1 ****        0.0000 
     54 N          -1.6524    1.1540   -1.6263 N.3       1 ****        0.0000 
     55 H          -1.2740    0.2247   -1.7534 H         1 ****        0.0000 
     56 C          -1.0334    2.0001   -0.7724 C.3       1 ****        0.0000 
     57 O          -1.4593    3.1285   -0.5396 O.3       1 ****        0.0000 
     58 C           0.2398    1.5237   -0.0690 C.3       1 ****        0.0000 
     59 H          -0.0048    1.5173    0.9986 H         1 ****        0.0000 
     60 C           1.3783    2.5257   -0.3184 C.3       1 ****        0.0000 
     61 H           0.9746    3.5302   -0.1645 H         1 ****        0.0000 
     62 H           1.6931    2.4529   -1.3698 H         1 ****        0.0000 
     63 C           2.5680    2.2689    0.6052 C.3       1 ****        0.0000 
     64 H           2.2534    2.4347    1.6437 H         1 ****        0.0000 
     65 H           2.8601    1.2135    0.5471 H         1 ****        0.0000 
     66 C           3.8014    3.0973    0.3151 C.3       1 ****        0.0000 
     67 C           3.7718    4.2502   -0.4730 C.3       1 ****        0.0000 
     68 H           2.8367    4.5960   -0.9008 H         1 ****        0.0000 
     69 C           4.9428    4.9664   -0.7358 C.3       1 ****        0.0000 
     70 H           4.8987    5.8553   -1.3583 H         1 ****        0.0000 
     71 C           6.1606    4.5427   -0.2088 C.3       1 ****        0.0000 
     72 H           7.0700    5.0968   -0.4168 H         1 ****        0.0000 
     73 C           6.2001    3.3984    0.5901 C.3       1 ****        0.0000 
     74 H           7.1427    3.0561    1.0059 H         1 ****        0.0000 
     75 C           5.0320    2.6841    0.8432 C.3       1 ****        0.0000 
     76 H           5.0720    1.7806    1.4487 H         1 ****        0.0000 
@<TRIPOS>BOND
     1    1    2 1    
     2    1    3 1    
     3    1    4 1    
     4    1    5 1    
     5    5    6 1    
     6    5   10 1    
     7    5   14 1    
     8    6    7 1    
     9    6    8 1    
    10    6    9 1    
    11   10   11 1    
    12   10   12 1    
    13   10   13 1    
    14   14   15 1    
    15   15   16 1    
    16   15   17 1    
    17   17   18 1    
    18   17   19 1    
    19   19   20 1    
    20   19   24 1    
    21   19   25 1    
    22   20   21 1    
    23   20   23 1    
    24   21   22 1    
    25   21   58 1    
    26   25   26 1    
    27   25   27 1    
    28   25   28 1    
    29   28   29 1    
    30   28   33 1    
    31   29   30 1    
    32   29   32 1    
    33   30   31 1    
    34   30   37 1    
    35   33   34 1    
    36   33   35 1    
    37   35   36 1    
    38   35   37 1    
    39   37   38 1    
    40   38   39 1    
    41   39   40 1    
    42   39   44 1    
    43   40   41 1    
    44   40   43 1    
    45   41   42 1    
    46   41   48 1    
    47   44   45 1    
    48   44   46 1    
    49   46   47 1    
    50   46   48 1    
    51   48   49 1    
    52   49   50 1    
    53   49   51 1    
    54   51   52 1    
    55   51   53 1    
    56   51   54 1    
    57   54   55 1    
    58   54   56 1    
    59   56   57 1    
    60   56   58 1    
    61   58   59 1    
    62   58   60 1    
    63   60   61 1    
    64   60   62 1    
    65   60   63 1    
    66   63   64 1    
    67   63   65 1    
    68   63   66 1    
    69   66   67 1    
    70   66   75 1    
    71   67   68 1    
    72   67   69 1    
    73   69   70 1    
    74   69   71 1    
    75   71   72 1    
    76   71   73 1    
    77   73   74 1    
    78   73   75 1    
    79   75   76 1    
@<TRIPOS>SUBSTRUCTURE
     1 ****        1 GROUP             0       ****    0 ROOT    
@<TRIPOS>MOLECULE
Cpd4-5000
76   79    1
SMALL
USER_CHARGES


@<TRIPOS>ATOM
      1 C           5.3940   -1.2109   -3.8426 C.3       1 ****        0.0000 
      2 H           4.3777   -1.4686   -4.1407 H         1 ****        0.0000 
      3 H           5.9360   -0.8469   -4.7202 H         1 ****        0.0000 
      4 H           5.9013   -2.1067   -3.4713 H         1 ****        0.0000 
      5 C           5.3905   -0.1271   -2.7694 C.3       1 ****        0.0000 
      6 C           4.6681    1.1377   -3.2267 C.3       1 ****        0.0000 
      7 H           5.2686    1.6250   -4.0015 H         1 ****        0.0000 
      8 H           3.6814    0.9156   -3.6323 H         1 ****        0.0000 
      9 H           4.5643    1.8350   -2.3892 H         1 ****        0.0000 
     10 C           6.8104    0.2062   -2.3271 C.3       1 ****        0.0000 
     11 H           7.2998   -0.6815   -1.9157 H         1 ****        0.0000 
     12 H           7.3902    0.5636   -3.1815 H         1 ****        0.0000 
     13 H           6.7980    0.9888   -1.5620 H         1 ****        0.0000 
     14 O           4.7925   -0.6575   -1.5434 O.3       1 ****        0.0000 
     15 C           3.4959   -0.9748   -1.4916 C.3       1 ****        0.0000 
     16 O           2.7069   -0.8978   -2.4301 O.3       1 ****        0.0000 
     17 N           3.1452   -1.4117   -0.2553 N.3       1 ****        0.0000 
     18 H           3.7907   -1.2426    0.5094 H         1 ****        0.0000 
     19 C           1.7881   -1.8497    0.0307 C.3       1 ****        0.0000 
     20 C           0.9151   -0.6546    0.4681 C.3       1 ****        0.0000 
     21 N           0.7736    0.3062   -0.4941 N.3       1 ****        0.0000 
     22 H           1.3066    0.1685   -1.3513 H         1 ****        0.0000 
     23 O           0.4212   -0.5646    1.5809 O.3       1 ****        0.0000 
     24 H           1.3846   -2.2209   -0.9167 H         1 ****        0.0000 
     25 C           1.7788   -2.9842    1.0658 C.3       1 ****        0.0000 
     26 H           2.1197   -2.5995    2.0334 H         1 ****        0.0000 
     27 H           2.4927   -3.7415    0.7258 H         1 ****        0.0000 
     28 C           0.3855   -3.5574    1.1849 C.3       1 ****        0.0000 
     29 C          -0.1989   -4.1730    0.0726 C.3       1 ****        0.0000 
     30 C          -1.5673   -4.4178    0.0318 C.3       1 ****        0.0000 
     31 H          -2.0416   -4.8054   -0.8646 H         1 ****        0.0000 
     32 H           0.4064   -4.3994   -0.8023 H         1 ****        0.0000 
     33 C          -0.3980   -3.3483    2.3206 C.3       1 ****        0.0000 
     34 H           0.0479   -2.8909    3.1984 H         1 ****        0.0000 
     35 C          -1.7695   -3.5985    2.3006 C.3       1 ****        0.0000 
     36 H          -2.3988   -3.3483    3.1497 H         1 ****        0.0000 
     37 C          -2.3493   -4.0484    1.1223 C.3       1 ****        0.0000 
     38 O          -3.7387   -3.9647    0.9528 O.3       1 ****        0.0000 
     39 C          -3.9816   -2.8489    0.1575 C.3       1 ****        0.0000 
     40 C          -3.6770   -1.5789    0.6513 C.3       1 ****        0.0000 
     41 C          -3.6551   -0.4990   -0.2185 C.3       1 ****        0.0000 
     42 H          -3.3637    0.4775    0.1548 H         1 ****        0.0000 
     43 H          -3.3838   -1.4611    1.6887 H         1 ****        0.0000 
     44 C          -4.4040   -3.0290   -1.1570 C.3       1 ****        0.0000 
     45 H          -4.6593   -4.0245   -1.5045 H         1 ****        0.0000 
     46 C          -4.3980   -1.9364   -2.0193 C.3       1 ****        0.0000 
     47 H          -4.6665   -2.0578   -3.0638 H         1 ****        0.0000 
     48 C          -3.9701   -0.6807   -1.5719 C.3       1 ****        0.0000 
     49 C          -3.7930    0.4074   -2.5714 C.3       1 ****        0.0000 
     50 O          -4.3655    0.3851   -3.6457 O.3       1 ****        0.0000 
     51 C          -2.8642    1.5766   -2.2561 C.3       1 ****        0.0000 
     52 H          -2.6940    2.1073   -3.1974 H         1 ****        0.0000 
     53 H          -3.3853    2.2676   -1.5814 H         1 ****        0.0000 
     54 N          -1.6131    1.2058   -1.6192 N.3       1 ****        0.0000 
     55 H          -1.1739    0.3131   -1.8099 H         1 ****        0.0000 
     56 C          -0.9905    2.0721   -0.7910 C.3       1 ****        0.0000 
     57 O          -1.4602    3.1740   -0.5152 O.3       1 ****        0.0000 
     58 C           0.3464    1.6538   -0.1647 C.3       1 ****        0.0000 
     59 H           0.1469    1.6615    0.9134 H         1 ****        0.0000 
     60 C           1.4337    2.6992   -0.4987 C.3       1 ****        0.0000 
     61 H           0.9429    3.6133   -0.8411 H         1 ****        0.0000 
     62 H           2.0428    2.3230   -1.3319 H         1 ****        0.0000 
     63 C           2.3366    3.0763    0.6885 C.3       1 ****        0.0000 
     64 H           2.9909    3.8922    0.3616 H         1 ****        0.0000 
     65 H           1.6996    3.4817    1.4835 H         1 ****        0.0000 
     66 C           3.1931    1.9665    1.2564 C.3       1 ****        0.0000 
     67 C           4.4689    1.7107    0.7375 C.3       1 ****        0.0000 
     68 H           4.8354    2.3076   -0.0955 H         1 ****        0.0000 
     69 C           5.2857    0.7254    1.2898 C.3       1 ****        0.0000 
     70 H           6.2732    0.5477    0.8760 H         1 ****        0.0000 
     71 C           4.8343   -0.0335    2.3712 C.3       1 ****        0.0000 
     72 H           5.4720   -0.7955    2.8088 H         1 ****        0.0000 
     73 C           3.5598    0.2031    2.8905 C.3       1 ****        0.0000 
     74 H           3.1955   -0.3791    3.7313 H         1 ****        0.0000 
     75 C           2.7550    1.2013    2.3426 C.3       1 ****        0.0000 
     76 H           1.7728    1.3869    2.7677 H         1 ****        0.0000 
@<TRIPOS>BOND
     1    1    2 1    
     2    1    3 1    
     3    1    4 1    
     4    1    5 1    
     5    5    6 1    
     6    5   10 1    
     7    5   14 1    
     8    6    7 1    
     9    6    8 1    
    10    6    9 1    
    11   10   11 1    
    12   10   12 1    
    13   10   13 1    
    14   14   15 1    
    15   15   16 1    
    16   15   17 1    
    17   17   18 1    
    18   17   19 1    
    19   19   20 1    
    20   19   24 1    
    21   19   25 1    
    22   20   21 1    
    23   20   23 1    
    24   21   22 1    
    25   21   58 1    
    26   25   26 1    
    27   25   27 1    
    28   25   28 1    
    29   28   29 1    
    30   28   33 1    
    31   29   30 1    
    32   29   32 1    
    33   30   31 1    
    34   30   37 1    
    35   33   34 1    
    36   33   35 1    
    37   35   36 1    
    38   35   37 1    
    39   37   38 1    
    40   38   39 1    
    41   39   40 1    
    42   39   44 1    
    43   40   41 1    
    44   40   43 1    
    45   41   42 1    
    46   41   48 1    
    47   44   45 1    
    48   44   46 1    
    49   46   47 1    
    50   46   48 1    
    51   48   49 1    
    52   49   50 1    
    53   49   51 1    
    54   51   52 1    
    55   51   53 1    
    56   51   54 1    
    57   54   55 1    
    58   54   56 1    
    59   56   57 1    
    60   56   58 1    
    61   58   59 1    
    62   58   60 1    
    63   60   61 1    
    64   60   62 1    
    65   60   63 1    
    66   63   64 1    
    67   63   65 1    
    68   63   66 1    
    69   66   67 1    
    70   66   75 1    
    71   67   68 1    
    72   67   69 1    
    73   69   70 1    
    74   69   71 1    
    75   71   72 1    
    76   71   73 1    
    77   73   74 1    
    78   73   75 1    
    79   75   76 1    
@<TRIPOS>SUBSTRUCTURE
     1 ****        1 GROUP             0       ****    0 ROOT    
