@<TRIPOS>MOLECULE
Cpd4-500-MRC
96   97    1
SMALL
USER_CHARGES


@<TRIPOS>ATOM
      1 C1         27.7569   24.7784   33.0594 C.3       1 UNK         0.0000 
      2 H2         28.5107   25.1118   32.3354 H         1 UNK         0.0000 
      3 H3         27.0883   24.0623   32.5677 H         1 UNK         0.0000 
      4 H4         27.3632   25.6604   33.5790 H         1 UNK         0.0000 
      5 C5         28.5895   24.0977   34.1753 C.3       1 UNK         0.0000 
      6 C6         29.3712   22.9123   33.5989 C.3       1 UNK         0.0000 
      7 H7         28.6500   22.2473   33.1093 H         1 UNK         0.0000 
      8 H8         30.0234   23.3123   32.8127 H         1 UNK         0.0000 
      9 H9         29.9393   22.4023   34.3871 H         1 UNK         0.0000 
     10 C10        27.7013   23.7035   35.2698 C.3       1 UNK         0.0000 
     11 H11        28.1320   22.8313   35.7772 H         1 UNK         0.0000 
     12 H12        27.4819   24.5481   35.9360 H         1 UNK         0.0000 
     13 H13        26.7284   23.4282   34.8444 H         1 UNK         0.0000 
     14 O14        29.4042   25.1260   34.8204 O.3       1 UNK         0.0000 
     15 C15        30.4221   25.7159   34.1857 C.2       1 UNK         0.0000 
     16 O16        30.6375   25.6439   33.0153 O.2       1 UNK         0.0000 
     17 N17        30.8817   26.6864   35.0798 N.am      1 UNK         0.0000 
     18 H18        30.4316   26.7381   35.9859 H         1 UNK         0.0000 
     19 C19        31.7982   27.7851   34.6063 C.3       1 UNK         0.0000 
     20 C20        33.0376   27.2169   33.8277 C.2       1 UNK         0.0000 
     21 N21        32.9731   27.3634   32.4777 N.am      1 UNK         0.0000 
     22 H22        32.0425   27.3891   32.0800 H         1 UNK         0.0000 
     23 O23        34.0369   26.9564   34.4451 O.2       1 UNK         0.0000 
     24 H24        31.1531   28.3382   33.9119 H         1 UNK         0.0000 
     25 C25        32.0820   28.6676   35.8043 C.3       1 UNK         0.0000 
     26 H26        32.8374   28.2345   36.4719 H         1 UNK         0.0000 
     27 H27        31.1875   28.9346   36.3789 H         1 UNK         0.0000 
     28 C28        32.6452   30.0433   35.3836 C.ar      1 UNK         0.0000 
     29 C29        31.7548   31.0864   35.2423 C.ar      1 UNK         0.0000 
     30 C30        32.1151   32.2720   34.5219 C.ar      1 UNK         0.0000 
     31 H31        31.4567   33.1114   34.3182 H         1 UNK         0.0000 
     32 H32        30.7049   30.9344   35.4741 H         1 UNK         0.0000 
     33 C33        33.9816   30.2079   34.9586 C.ar      1 UNK         0.0000 
     34 H34        34.7323   29.4285   35.0476 H         1 UNK         0.0000 
     35 C35        34.4211   31.4370   34.4183 C.ar      1 UNK         0.0000 
     36 H36        35.4691   31.6009   34.1865 H         1 UNK         0.0000 
     37 C37        33.4597   32.4573   34.1349 C.ar      1 UNK         0.0000 
     38 O38        33.8782   33.4361   33.2660 O.3       1 UNK         0.0000 
     39 C39        34.2403   33.0324   32.0048 C.ar      1 UNK         0.0000 
     40 C40        35.5290   33.1550   31.5048 C.ar      1 UNK         0.0000 
     41 C41        35.9360   32.4907   30.2983 C.ar      1 UNK         0.0000 
     42 H42        36.9354   32.6152   29.8919 H         1 UNK         0.0000 
     43 H43        36.2478   33.7212   32.0902 H         1 UNK         0.0000 
     44 C44        33.2773   32.3502   31.2403 C.ar      1 UNK         0.0000 
     45 H45        32.2710   32.2232   31.6284 H         1 UNK         0.0000 
     46 C46        33.5422   31.7189   30.0169 C.ar      1 UNK         0.0000 
     47 H47        32.7741   31.2986   29.3734 H         1 UNK         0.0000 
     48 C48        34.9130   31.7164   29.5835 C.ar      1 UNK         0.0000 
     49 C49        35.3883   30.7872   28.5539 C.2       1 UNK         0.0000 
     50 O50        36.3639   31.0563   27.8497 O.2       1 UNK         0.0000 
     51 C51        34.7401   29.4312   28.4256 C.3       1 UNK         0.0000 
     52 H52        33.6742   29.4769   28.1702 H         1 UNK         0.0000 
     53 H53        35.2786   28.9000   27.6315 H         1 UNK         0.0000 
     54 N54        34.8901   28.6318   29.6083 N.am      1 UNK         0.0000 
     55 H55        35.7402   28.6889   30.1557 H         1 UNK         0.0000 
     56 C56        33.8449   28.1139   30.2430 C.2       1 UNK         0.0000 
     57 O57        32.7159   28.0665   29.7560 O.2       1 UNK         0.0000 
     58 C58        34.2166   27.4499   31.6101 C.3       1 UNK         0.0000 
     59 H59        35.0292   28.0549   32.0312 H         1 UNK         0.0000 
     60 C60        34.7727   26.0019   31.5087 C.3       1 UNK         0.0000 
     61 H61        35.0935   25.7336   32.5223 H         1 UNK         0.0000 
     62 H62        35.7309   26.0312   30.9756 H         1 UNK         0.0000 
     63 C63        33.8921   24.9111   30.8776 C.3       1 UNK         0.0000 
     64 H64        33.3130   24.3900   31.6501 H         1 UNK         0.0000 
     65 H65        33.2688   25.4290   30.1378 H         1 UNK         0.0000 
     66 C66        34.7734   23.8924   30.1516 C.ar      1 UNK         0.0000 
     67 C67        34.9705   22.6877   30.8406 C.ar      1 UNK         0.0000 
     68 H68        34.4895   22.6440   31.8135 H         1 UNK         0.0000 
     69 C69        35.7110   21.5966   30.3118 C.ar      1 UNK         0.0000 
     70 H70        35.8236   20.7672   31.0044 H         1 UNK         0.0000 
     71 C71        36.1616   21.6736   29.0332 C.ar      1 UNK         0.0000 
     72 H72        36.5867   20.8521   28.4636 H         1 UNK         0.0000 
     73 C73        35.9836   22.8924   28.2971 C.ar      1 UNK         0.0000 
     74 H74        36.2957   22.9670   27.2598 H         1 UNK         0.0000 
     75 C75        35.3764   24.0427   28.8783 C.ar      1 UNK         0.0000 
     76 H76        35.1551   24.8870   28.2315 H         1 UNK         0.0000 
     77 C77        38.0308   30.5427   32.9374 C.3       1 UNK         0.0000 
     78 H78        38.7772   30.7445   32.1598 H         1 UNK         0.0000 
     79 H79        38.3102   30.8052   33.9654 H         1 UNK         0.0000 
     80 H80        37.2554   31.2957   32.7495 H         1 UNK         0.0000 
     81 S81        37.5965   28.8643   32.6845 S.3       1 UNK         0.0000 
     82 C82        39.2552   28.0916   32.8509 C.3       1 UNK         0.0000 
     83 H83        39.4793   28.0440   33.9234 H         1 UNK         0.0000 
     84 H84        40.0302   28.7142   32.3884 H         1 UNK         0.0000 
     85 H85        39.3212   27.0712   32.4543 H         1 UNK         0.0000 
     86 O86        37.1644   28.7276   31.3176 O.2       1 UNK         0.0000 
     87 C87        32.9617   26.0203   39.7652 C.3       1 UNK         0.0000 
     88 H88        33.7024   25.7133   39.0169 H         1 UNK         0.0000 
     89 H89        32.5155   25.1450   40.2529 H         1 UNK         0.0000 
     90 H90        33.3991   26.6862   40.5184 H         1 UNK         0.0000 
     91 S91        31.6624   27.1367   39.2187 S.3       1 UNK         0.0000 
     92 C92        30.5576   26.9777   40.6594 C.3       1 UNK         0.0000 
     93 H93        30.6235   25.9756   41.0992 H         1 UNK         0.0000 
     94 H94        29.5329   27.2696   40.3967 H         1 UNK         0.0000 
     95 H95        30.8997   27.6331   41.4702 H         1 UNK         0.0000 
     96 O96        31.0175   26.4568   38.0958 O.2       1 UNK         0.0000 
@<TRIPOS>BOND
     1    1    4 1    
     2    1    5 1    
     3    1    2 1    
     4    1    3 1    
     5    5   14 1    
     6    5   10 1    
     7    5    6 1    
     8    6    9 1    
     9    6    7 1    
    10    6    8 1    
    11   10   11 1    
    12   10   12 1    
    13   10   13 1    
    14   14   15 1    
    15   15   17 am   BACKBONE|DICT|INTERRES
    16   15   16 2    
    17   17   18 1    
    18   17   19 1    
    19   19   24 1    
    20   19   25 1    
    21   19   20 1    
    22   20   23 2    
    23   20   21 am   BACKBONE|DICT|INTERRES
    24   21   22 1    
    25   21   58 1    
    26   25   26 1    
    27   25   27 1    
    28   25   28 1    
    29   28   29 ar   
    30   28   33 ar   
    31   29   32 1    
    32   29   30 ar   
    33   30   31 1    
    34   30   37 ar   
    35   33   34 1    
    36   33   35 ar   
    37   35   36 1    
    38   35   37 ar   
    39   37   38 1    
    40   38   39 1    
    41   39   40 ar   
    42   39   44 ar   
    43   40   43 1    
    44   40   41 ar   
    45   41   42 1    
    46   41   48 ar   
    47   44   45 1    
    48   44   46 ar   
    49   46   47 1    
    50   46   48 ar   
    51   48   49 1    
    52   49   50 2    
    53   49   51 1    
    54   51   54 1    
    55   51   52 1    
    56   51   53 1    
    57   54   55 1    
    58   54   56 am   BACKBONE|DICT|INTERRES
    59   56   58 1    
    60   56   57 2    
    61   58   59 1    
    62   58   60 1    
    63   60   61 1    
    64   60   62 1    
    65   60   63 1    
    66   63   64 1    
    67   63   65 1    
    68   63   66 1    
    69   66   67 ar   
    70   66   75 ar   
    71   67   68 1    
    72   67   69 ar   
    73   69   70 1    
    74   69   71 ar   
    75   71   72 1    
    76   71   73 ar   
    77   73   75 ar   
    78   73   74 1    
    79   75   76 1    
    80   77   79 1    
    81   77   78 1    
    82   77   80 1    
    83   77   81 1    
    84   81   82 1    
    85   81   86 2    
    86   82   83 1    
    87   82   84 1    
    88   82   85 1    
    89   87   89 1    
    90   87   90 1    
    91   87   88 1    
    92   87   91 1    
    93   91   92 1    
    94   91   96 2    
    95   92   93 1    
    96   92   95 1    
    97   92   94 1    
@<TRIPOS>SUBSTRUCTURE
     1 UNK         1 GROUP             0       ****    0 ROOT    
@<TRIPOS>MOLECULE
Cpd4-1000
96   97    1
SMALL
USER_CHARGES


@<TRIPOS>ATOM
      1 C1         27.7458   24.5609   32.5789 C.3       1 UNK         0.0000 
      2 H2         28.0892   24.8923   31.5911 H         1 UNK         0.0000 
      3 H3         27.1378   23.6639   32.4061 H         1 UNK         0.0000 
      4 H4         27.1584   25.3695   33.0312 H         1 UNK         0.0000 
      5 C5         29.0304   24.1467   33.3483 C.3       1 UNK         0.0000 
      6 C6         30.1475   23.5661   32.3941 C.3       1 UNK         0.0000 
      7 H7         30.1335   23.9653   31.3729 H         1 UNK         0.0000 
      8 H8         31.1370   23.8750   32.7541 H         1 UNK         0.0000 
      9 H9         30.1157   22.4703   32.3655 H         1 UNK         0.0000 
     10 C10        28.7701   23.1030   34.4124 C.3       1 UNK         0.0000 
     11 H11        27.8830   23.2738   35.0344 H         1 UNK         0.0000 
     12 H12        28.6412   22.1195   33.9437 H         1 UNK         0.0000 
     13 H13        29.6845   23.1120   35.0177 H         1 UNK         0.0000 
     14 O14        29.5362   25.2984   34.0491 O.3       1 UNK         0.0000 
     15 C15        29.9101   26.3908   33.3985 C.2       1 UNK         0.0000 
     16 O16        29.8898   26.6243   32.2021 O.2       1 UNK         0.0000 
     17 N17        30.7447   27.0182   34.2544 N.am      1 UNK         0.0000 
     18 H18        30.7268   26.5045   35.1262 H         1 UNK         0.0000 
     19 C19        31.7480   28.1021   34.0764 C.3       1 UNK         0.0000 
     20 C20        33.1024   27.5456   33.4775 C.2       1 UNK         0.0000 
     21 N21        33.0143   27.2861   32.1012 N.am      1 UNK         0.0000 
     22 H22        32.0654   27.4581   31.7897 H         1 UNK         0.0000 
     23 O23        34.0879   27.3081   34.1039 O.2       1 UNK         0.0000 
     24 H24        31.3570   28.7737   33.3017 H         1 UNK         0.0000 
     25 C25        31.9337   28.8442   35.3741 C.3       1 UNK         0.0000 
     26 H26        32.6370   28.3566   36.0601 H         1 UNK         0.0000 
     27 H27        30.9619   28.9533   35.8700 H         1 UNK         0.0000 
     28 C28        32.5241   30.2618   35.0656 C.ar      1 UNK         0.0000 
     29 C29        31.7487   31.2130   34.4214 C.ar      1 UNK         0.0000 
     30 C30        32.3182   32.4460   34.1069 C.ar      1 UNK         0.0000 
     31 H31        31.7860   33.2131   33.5525 H         1 UNK         0.0000 
     32 H32        30.6974   31.0482   34.2084 H         1 UNK         0.0000 
     33 C33        33.8797   30.4699   35.3634 C.ar      1 UNK         0.0000 
     34 H34        34.4540   29.6802   35.8407 H         1 UNK         0.0000 
     35 C35        34.4694   31.6827   34.9485 C.ar      1 UNK         0.0000 
     36 H36        35.5343   31.8292   35.1027 H         1 UNK         0.0000 
     37 C37        33.6866   32.6913   34.2979 C.ar      1 UNK         0.0000 
     38 O38        34.2417   33.6696   33.5691 O.3       1 UNK         0.0000 
     39 C39        34.4912   33.3015   32.3016 C.ar      1 UNK         0.0000 
     40 C40        35.5281   32.3254   32.0785 C.ar      1 UNK         0.0000 
     41 C41        35.4732   31.6055   30.8566 C.ar      1 UNK         0.0000 
     42 H42        36.1633   30.7822   30.7022 H         1 UNK         0.0000 
     43 H43        36.2550   32.0848   32.8479 H         1 UNK         0.0000 
     44 C44        33.5745   33.5449   31.2058 C.ar      1 UNK         0.0000 
     45 H45        32.7120   34.1842   31.3687 H         1 UNK         0.0000 
     46 C46        33.6102   32.7794   29.9936 C.ar      1 UNK         0.0000 
     47 H47        32.9377   32.9284   29.1541 H         1 UNK         0.0000 
     48 C48        34.5196   31.8031   29.8996 C.ar      1 UNK         0.0000 
     49 C49        34.4009   30.7882   28.8162 C.2       1 UNK         0.0000 
     50 O50        33.8664   31.1616   27.7797 O.2       1 UNK         0.0000 
     51 C51        35.0449   29.4208   29.0009 C.3       1 UNK         0.0000 
     52 H52        35.0323   28.9391   28.0160 H         1 UNK         0.0000 
     53 H53        36.0975   29.5529   29.2771 H         1 UNK         0.0000 
     54 N54        34.3141   28.4424   29.8591 N.am      1 UNK         0.0000 
     55 H55        33.5222   28.7860   30.3905 H         1 UNK         0.0000 
     56 C56        34.7092   27.1620   30.1863 C.2       1 UNK         0.0000 
     57 O57        35.6028   26.5805   29.6004 O.2       1 UNK         0.0000 
     58 C58        33.8913   26.4944   31.2978 C.3       1 UNK         0.0000 
     59 H59        34.6743   26.1046   31.9600 H         1 UNK         0.0000 
     60 C60        33.1667   25.1938   30.7831 C.3       1 UNK         0.0000 
     61 H61        32.7332   25.5476   29.8401 H         1 UNK         0.0000 
     62 H62        32.4119   24.8486   31.5007 H         1 UNK         0.0000 
     63 C63        34.1194   24.0794   30.5028 C.3       1 UNK         0.0000 
     64 H64        35.1078   24.1694   30.9712 H         1 UNK         0.0000 
     65 H65        33.7243   23.2800   31.1414 H         1 UNK         0.0000 
     66 C66        34.0476   23.5279   29.0950 C.ar      1 UNK         0.0000 
     67 C67        35.1789   23.6707   28.3151 C.ar      1 UNK         0.0000 
     68 H68        36.1017   24.0841   28.7110 H         1 UNK         0.0000 
     69 C69        35.1687   23.1717   26.9741 C.ar      1 UNK         0.0000 
     70 H70        36.0977   23.2346   26.4160 H         1 UNK         0.0000 
     71 C71        34.0314   22.5428   26.5032 C.ar      1 UNK         0.0000 
     72 H72        34.0286   22.1076   25.5083 H         1 UNK         0.0000 
     73 C73        32.8635   22.5374   27.2505 C.ar      1 UNK         0.0000 
     74 H74        31.9365   22.1793   26.8124 H         1 UNK         0.0000 
     75 C75        32.8687   23.0926   28.5241 C.ar      1 UNK         0.0000 
     76 H76        31.9694   23.1943   29.1236 H         1 UNK         0.0000 
     77 C77        30.2430   25.2437   39.1393 C.3       1 UNK         0.0000 
     78 H78        29.6509   24.4772   39.6545 H         1 UNK         0.0000 
     79 H79        29.7545   26.1570   39.4995 H         1 UNK         0.0000 
     80 H80        31.2800   25.1836   39.4911 H         1 UNK         0.0000 
     81 S81        30.2603   24.9933   37.3557 S.3       1 UNK         0.0000 
     82 C82        31.1344   23.3489   37.5114 C.3       1 UNK         0.0000 
     83 H83        31.6445   23.0604   36.5836 H         1 UNK         0.0000 
     84 H84        30.3939   22.5673   37.7232 H         1 UNK         0.0000 
     85 H85        31.9655   23.4206   38.2242 H         1 UNK         0.0000 
     86 O86        31.3188   25.9487   36.8504 O.2       1 UNK         0.0000 
     87 C87        29.3106   30.8140   31.4135 C.3       1 UNK         0.0000 
     88 H88        28.8254   31.7000   30.9851 H         1 UNK         0.0000 
     89 H89        29.5897   30.9799   32.4609 H         1 UNK         0.0000 
     90 H90        28.8424   29.8279   31.2996 H         1 UNK         0.0000 
     91 S91        30.9858   30.6761   30.6974 S.3       1 UNK         0.0000 
     92 C92        30.6346   30.9096   28.9433 C.3       1 UNK         0.0000 
     93 H93        30.5515   31.9247   28.5382 H         1 UNK         0.0000 
     94 H94        29.7165   30.3925   28.6373 H         1 UNK         0.0000 
     95 H95        31.4570   30.3761   28.4500 H         1 UNK         0.0000 
     96 O96        31.3885   29.2474   30.8275 O.2       1 UNK         0.0000 
@<TRIPOS>BOND
     1    1    4 1    
     2    1    5 1    
     3    1    2 1    
     4    1    3 1    
     5    5   14 1    
     6    5   10 1    
     7    5    6 1    
     8    6    8 1    
     9    6    7 1    
    10    6    9 1    
    11   10   13 1    
    12   10   11 1    
    13   10   12 1    
    14   14   15 1    
    15   15   17 am   BACKBONE|DICT|INTERRES
    16   15   16 2    
    17   17   18 1    
    18   17   19 1    
    19   19   24 1    
    20   19   25 1    
    21   19   20 1    
    22   20   23 2    
    23   20   21 am   BACKBONE|DICT|INTERRES
    24   21   22 1    
    25   21   58 1    
    26   25   27 1    
    27   25   26 1    
    28   25   28 1    
    29   28   33 ar   
    30   28   29 ar   
    31   29   30 ar   
    32   29   32 1    
    33   30   37 ar   
    34   30   31 1    
    35   33   34 1    
    36   33   35 ar   
    37   35   36 1    
    38   35   37 ar   
    39   37   38 1    
    40   38   39 1    
    41   39   40 ar   
    42   39   44 ar   
    43   40   43 1    
    44   40   41 ar   
    45   41   42 1    
    46   41   48 ar   
    47   44   45 1    
    48   44   46 ar   
    49   46   47 1    
    50   46   48 ar   
    51   48   49 1    
    52   49   51 1    
    53   49   50 2    
    54   51   53 1    
    55   51   54 1    
    56   51   52 1    
    57   54   56 am   BACKBONE|DICT|INTERRES
    58   54   55 1    
    59   56   58 1    
    60   56   57 2    
    61   58   59 1    
    62   58   60 1    
    63   60   62 1    
    64   60   61 1    
    65   60   63 1    
    66   63   64 1    
    67   63   65 1    
    68   63   66 1    
    69   66   67 ar   
    70   66   75 ar   
    71   67   68 1    
    72   67   69 ar   
    73   69   70 1    
    74   69   71 ar   
    75   71   73 ar   
    76   71   72 1    
    77   73   75 ar   
    78   73   74 1    
    79   75   76 1    
    80   77   80 1    
    81   77   79 1    
    82   77   78 1    
    83   77   81 1    
    84   81   82 1    
    85   81   86 2    
    86   82   84 1    
    87   82   85 1    
    88   82   83 1    
    89   87   89 1    
    90   87   88 1    
    91   87   90 1    
    92   87   91 1    
    93   91   96 2    
    94   91   92 1    
    95   92   93 1    
    96   92   94 1    
    97   92   95 1    
@<TRIPOS>SUBSTRUCTURE
     1 UNK         1 GROUP             0       ****    0 ROOT    
@<TRIPOS>MOLECULE
Cpd4-1500
96   97    1
SMALL
USER_CHARGES


@<TRIPOS>ATOM
      1 C1         27.2382   25.3775   33.6666 C.3       1 UNK         0.0000 
      2 H2         27.4869   26.3587   33.2447 H         1 UNK         0.0000 
      3 H3         26.6350   24.8967   32.8874 H         1 UNK         0.0000 
      4 H4         26.6620   25.4667   34.5955 H         1 UNK         0.0000 
      5 C5         28.4350   24.4380   33.9898 C.3       1 UNK         0.0000 
      6 C6         28.9788   23.8008   32.7674 C.3       1 UNK         0.0000 
      7 H7         28.3018   23.0486   32.3435 H         1 UNK         0.0000 
      8 H8         29.2103   24.5505   32.0002 H         1 UNK         0.0000 
      9 H9         29.8767   23.2380   33.0483 H         1 UNK         0.0000 
     10 C10        27.9381   23.3586   34.9581 C.3       1 UNK         0.0000 
     11 H11        28.0359   23.6690   36.0053 H         1 UNK         0.0000 
     12 H12        26.9559   22.9123   34.7563 H         1 UNK         0.0000 
     13 H13        28.5381   22.4539   34.8016 H         1 UNK         0.0000 
     14 O14        29.4501   25.1841   34.5446 O.3       1 UNK         0.0000 
     15 C15        29.9981   26.2508   33.9300 C.2       1 UNK         0.0000 
     16 O16        29.9430   26.4908   32.7308 O.2       1 UNK         0.0000 
     17 N17        30.9282   26.7139   34.6977 N.am      1 UNK         0.0000 
     18 H18        31.0782   26.2861   35.6028 H         1 UNK         0.0000 
     19 C19        31.7873   27.7919   34.2545 C.3       1 UNK         0.0000 
     20 C20        33.0437   27.2667   33.5578 C.2       1 UNK         0.0000 
     21 N21        33.0207   27.2824   32.1730 N.am      1 UNK         0.0000 
     22 H22        32.2950   27.8063   31.6996 H         1 UNK         0.0000 
     23 O23        34.0434   26.9668   34.1283 O.2       1 UNK         0.0000 
     24 H24        31.2872   28.2891   33.4149 H         1 UNK         0.0000 
     25 C25        32.0503   28.8113   35.4067 C.3       1 UNK         0.0000 
     26 H26        32.7134   28.3486   36.1483 H         1 UNK         0.0000 
     27 H27        31.1178   28.9841   35.9595 H         1 UNK         0.0000 
     28 C28        32.5776   30.1887   34.9601 C.ar      1 UNK         0.0000 
     29 C29        31.8926   30.9631   34.0062 C.ar      1 UNK         0.0000 
     30 C30        32.4115   32.2439   33.6112 C.ar      1 UNK         0.0000 
     31 H31        31.9450   32.7513   32.7722 H         1 UNK         0.0000 
     32 H32        30.9848   30.6229   33.5161 H         1 UNK         0.0000 
     33 C33        33.6966   30.7529   35.6238 C.ar      1 UNK         0.0000 
     34 H34        34.1429   30.1664   36.4216 H         1 UNK         0.0000 
     35 C35        34.1913   31.9873   35.1971 C.ar      1 UNK         0.0000 
     36 H36        35.0986   32.3446   35.6758 H         1 UNK         0.0000 
     37 C37        33.5724   32.7543   34.1482 C.ar      1 UNK         0.0000 
     38 O38        34.2446   33.8062   33.4611 O.3       1 UNK         0.0000 
     39 C39        34.7325   33.5009   32.2572 C.ar      1 UNK         0.0000 
     40 C40        35.6752   32.4062   32.1640 C.ar      1 UNK         0.0000 
     41 C41        35.5651   31.5746   31.0150 C.ar      1 UNK         0.0000 
     42 H42        36.3469   30.8386   30.8506 H         1 UNK         0.0000 
     43 H43        36.3428   32.2965   33.0134 H         1 UNK         0.0000 
     44 C44        33.9033   33.8186   31.1818 C.ar      1 UNK         0.0000 
     45 H45        33.2130   34.6576   31.1637 H         1 UNK         0.0000 
     46 C46        33.7675   32.9333   30.0749 C.ar      1 UNK         0.0000 
     47 H47        33.1216   33.2008   29.2445 H         1 UNK         0.0000 
     48 C48        34.5894   31.7895   30.0182 C.ar      1 UNK         0.0000 
     49 C49        34.3272   30.7475   28.8578 C.2       1 UNK         0.0000 
     50 O50        33.5275   31.0801   27.9852 O.2       1 UNK         0.0000 
     51 C51        34.8984   29.3915   28.9340 C.3       1 UNK         0.0000 
     52 H52        34.9656   28.9814   27.9187 H         1 UNK         0.0000 
     53 H53        35.8892   29.4604   29.3992 H         1 UNK         0.0000 
     54 N54        34.1567   28.4386   29.7589 N.am      1 UNK         0.0000 
     55 H55        33.3211   28.7655   30.2296 H         1 UNK         0.0000 
     56 C56        34.6134   27.2175   30.1532 C.2       1 UNK         0.0000 
     57 O57        35.5863   26.7359   29.5619 O.2       1 UNK         0.0000 
     58 C58        33.9067   26.4801   31.2918 C.3       1 UNK         0.0000 
     59 H59        34.7292   26.0279   31.8600 H         1 UNK         0.0000 
     60 C60        33.1830   25.3285   30.6067 C.3       1 UNK         0.0000 
     61 H61        33.8476   24.8656   29.8667 H         1 UNK         0.0000 
     62 H62        32.3538   25.6137   29.9472 H         1 UNK         0.0000 
     63 C63        32.8122   24.2646   31.6195 C.3       1 UNK         0.0000 
     64 H64        33.6488   24.0015   32.2774 H         1 UNK         0.0000 
     65 H65        32.1989   24.7419   32.3941 H         1 UNK         0.0000 
     66 C66        32.1381   23.0006   31.0553 C.ar      1 UNK         0.0000 
     67 C67        31.0487   23.0664   30.1981 C.ar      1 UNK         0.0000 
     68 H68        30.6941   24.0088   29.7928 H         1 UNK         0.0000 
     69 C69        30.4293   21.9219   29.7786 C.ar      1 UNK         0.0000 
     70 H70        29.5327   22.0451   29.1781 H         1 UNK         0.0000 
     71 C71        30.9128   20.6361   30.1051 C.ar      1 UNK         0.0000 
     72 H72        30.3835   19.7270   29.8338 H         1 UNK         0.0000 
     73 C73        32.0187   20.5783   30.9929 C.ar      1 UNK         0.0000 
     74 H74        32.3875   19.5640   31.1051 H         1 UNK         0.0000 
     75 C75        32.6184   21.7654   31.5412 C.ar      1 UNK         0.0000 
     76 H76        33.4925   21.6776   32.1798 H         1 UNK         0.0000 
     77 C77        31.6488   27.8997   38.9642 C.3       1 UNK         0.0000 
     78 H78        30.8341   28.3342   38.3714 H         1 UNK         0.0000 
     79 H79        32.5288   28.2396   38.4046 H         1 UNK         0.0000 
     80 H80        31.6548   28.1673   40.0277 H         1 UNK         0.0000 
     81 S81        31.5459   26.0391   38.9423 S.3       1 UNK         0.0000 
     82 C82        33.2060   25.8814   39.3352 C.3       1 UNK         0.0000 
     83 H83        33.3776   24.8757   39.7361 H         1 UNK         0.0000 
     84 H84        33.5734   26.5765   40.1007 H         1 UNK         0.0000 
     85 H85        33.8074   26.0593   38.4358 H         1 UNK         0.0000 
     86 O86        31.3530   25.6211   37.5352 O.2       1 UNK         0.0000 
     87 C87        30.9842   28.4632   28.4089 C.3       1 UNK         0.0000 
     88 H88        31.3266   27.4661   28.7110 H         1 UNK         0.0000 
     89 H89        31.7768   28.9955   27.8673 H         1 UNK         0.0000 
     90 H90        30.1656   28.2776   27.7042 H         1 UNK         0.0000 
     91 S91        30.4137   29.3625   29.8732 S.3       1 UNK         0.0000 
     92 C92        30.4211   31.0283   29.0405 C.3       1 UNK         0.0000 
     93 H93        31.1075   31.1305   28.1903 H         1 UNK         0.0000 
     94 H94        30.7303   31.7179   29.8349 H         1 UNK         0.0000 
     95 H95        29.3849   31.1776   28.7121 H         1 UNK         0.0000 
     96 O96        31.6847   29.3507   30.6933 O.2       1 UNK         0.0000 
@<TRIPOS>BOND
     1    1    5 1    
     2    1    4 1    
     3    1    2 1    
     4    1    3 1    
     5    5   14 1    
     6    5   10 1    
     7    5    6 1    
     8    6    9 1    
     9    6    7 1    
    10    6    8 1    
    11   10   11 1    
    12   10   12 1    
    13   10   13 1    
    14   14   15 1    
    15   15   17 am   BACKBONE|DICT|INTERRES
    16   15   16 2    
    17   17   18 1    
    18   17   19 1    
    19   19   24 1    
    20   19   25 1    
    21   19   20 1    
    22   20   23 2    
    23   20   21 am   BACKBONE|DICT|INTERRES
    24   21   22 1    
    25   21   58 1    
    26   25   27 1    
    27   25   26 1    
    28   25   28 1    
    29   28   33 ar   
    30   28   29 ar   
    31   29   30 ar   
    32   29   32 1    
    33   30   37 ar   
    34   30   31 1    
    35   33   34 1    
    36   33   35 ar   
    37   35   36 1    
    38   35   37 ar   
    39   37   38 1    
    40   38   39 1    
    41   39   40 ar   
    42   39   44 ar   
    43   40   43 1    
    44   40   41 ar   
    45   41   42 1    
    46   41   48 ar   
    47   44   45 1    
    48   44   46 ar   
    49   46   47 1    
    50   46   48 ar   
    51   48   49 1    
    52   49   50 2    
    53   49   51 1    
    54   51   53 1    
    55   51   54 1    
    56   51   52 1    
    57   54   56 am   BACKBONE|DICT|INTERRES
    58   54   55 1    
    59   56   58 1    
    60   56   57 2    
    61   58   59 1    
    62   58   60 1    
    63   60   63 1    
    64   60   61 1    
    65   60   62 1    
    66   63   64 1    
    67   63   65 1    
    68   63   66 1    
    69   66   75 ar   
    70   66   67 ar   
    71   67   68 1    
    72   67   69 ar   
    73   69   71 ar   
    74   69   70 1    
    75   71   73 ar   
    76   71   72 1    
    77   73   74 1    
    78   73   75 ar   
    79   75   76 1    
    80   77   80 1    
    81   77   78 1    
    82   77   79 1    
    83   77   81 1    
    84   81   82 1    
    85   81   86 2    
    86   82   83 1    
    87   82   84 1    
    88   82   85 1    
    89   87   88 1    
    90   87   91 1    
    91   87   89 1    
    92   87   90 1    
    93   91   96 2    
    94   91   92 1    
    95   92   94 1    
    96   92   93 1    
    97   92   95 1    
@<TRIPOS>SUBSTRUCTURE
     1 UNK         1 GROUP             0       ****    0 ROOT    
@<TRIPOS>MOLECULE
Cpd4-2000
96   97    1
SMALL
USER_CHARGES


@<TRIPOS>ATOM
      1 C1         27.8274   24.6120   33.0013 C.3       1 UNK         0.0000 
      2 H2         26.8646   24.0870   33.0188 H         1 UNK         0.0000 
      3 H3         27.5619   25.6445   32.7414 H         1 UNK         0.0000 
      4 H4         28.4605   24.3100   32.1577 H         1 UNK         0.0000 
      5 C5         28.6264   24.4609   34.3071 C.3       1 UNK         0.0000 
      6 C6         29.5316   23.2410   34.2249 C.3       1 UNK         0.0000 
      7 H7         30.3478   23.4327   33.5171 H         1 UNK         0.0000 
      8 H8         29.9559   22.8759   35.1676 H         1 UNK         0.0000 
      9 H9         28.9372   22.4149   33.8172 H         1 UNK         0.0000 
     10 C10        27.6383   24.1946   35.5034 C.3       1 UNK         0.0000 
     11 H11        26.9303   25.0186   35.6583 H         1 UNK         0.0000 
     12 H12        27.0479   23.2705   35.5110 H         1 UNK         0.0000 
     13 H13        28.2110   24.0119   36.4215 H         1 UNK         0.0000 
     14 O14        29.3578   25.5980   34.6853 O.3       1 UNK         0.0000 
     15 C15        30.2744   26.1274   33.8723 C.2       1 UNK         0.0000 
     16 O16        30.5775   25.8926   32.6788 O.2       1 UNK         0.0000 
     17 N17        30.7896   27.1196   34.5616 N.am      1 UNK         0.0000 
     18 H18        30.2900   27.2527   35.4328 H         1 UNK         0.0000 
     19 C19        31.8606   28.0810   34.2986 C.3       1 UNK         0.0000 
     20 C20        33.0407   27.4810   33.5306 C.2       1 UNK         0.0000 
     21 N21        33.1333   27.6357   32.1565 N.am      1 UNK         0.0000 
     22 H22        32.3863   28.2271   31.8111 H         1 UNK         0.0000 
     23 O23        33.8593   26.7822   34.1407 O.2       1 UNK         0.0000 
     24 H24        31.3803   28.8417   33.6707 H         1 UNK         0.0000 
     25 C25        32.1563   28.8493   35.6190 C.3       1 UNK         0.0000 
     26 H26        32.8126   28.2772   36.2860 H         1 UNK         0.0000 
     27 H27        31.1911   28.9924   36.1203 H         1 UNK         0.0000 
     28 C28        32.5826   30.3028   35.3429 C.ar      1 UNK         0.0000 
     29 C29        31.7465   31.1590   34.5697 C.ar      1 UNK         0.0000 
     30 C30        32.2060   32.3665   34.0626 C.ar      1 UNK         0.0000 
     31 H31        31.5114   32.9638   33.4792 H         1 UNK         0.0000 
     32 H32        30.7285   30.9027   34.2909 H         1 UNK         0.0000 
     33 C33        33.9190   30.6404   35.4738 C.ar      1 UNK         0.0000 
     34 H34        34.6420   29.9515   35.8998 H         1 UNK         0.0000 
     35 C35        34.4181   31.9131   35.1219 C.ar      1 UNK         0.0000 
     36 H36        35.4716   32.1715   35.1729 H         1 UNK         0.0000 
     37 C37        33.5701   32.7159   34.3053 C.ar      1 UNK         0.0000 
     38 O38        34.1152   33.6397   33.4541 O.3       1 UNK         0.0000 
     39 C39        34.3605   33.0713   32.2440 C.ar      1 UNK         0.0000 
     40 C40        35.4088   32.2101   32.1024 C.ar      1 UNK         0.0000 
     41 C41        35.5686   31.5679   30.8528 C.ar      1 UNK         0.0000 
     42 H42        36.4303   30.9147   30.7559 H         1 UNK         0.0000 
     43 H43        36.1896   32.1444   32.8557 H         1 UNK         0.0000 
     44 C44        33.4643   33.3058   31.2677 C.ar      1 UNK         0.0000 
     45 H45        32.6363   33.9855   31.4448 H         1 UNK         0.0000 
     46 C46        33.6212   32.6819   29.9427 C.ar      1 UNK         0.0000 
     47 H47        32.8831   32.8349   29.1610 H         1 UNK         0.0000 
     48 C48        34.6286   31.7204   29.7929 C.ar      1 UNK         0.0000 
     49 C49        34.6646   30.8018   28.5687 C.2       1 UNK         0.0000 
     50 O50        34.2499   31.1698   27.5068 O.2       1 UNK         0.0000 
     51 C51        35.1304   29.3928   28.7797 C.3       1 UNK         0.0000 
     52 H52        34.9341   28.7695   27.8978 H         1 UNK         0.0000 
     53 H53        36.1959   29.3008   29.0234 H         1 UNK         0.0000 
     54 N54        34.4606   28.7458   29.8835 N.am      1 UNK         0.0000 
     55 H55        33.9168   29.2921   30.5395 H         1 UNK         0.0000 
     56 C56        34.5860   27.3813   30.1045 C.2       1 UNK         0.0000 
     57 O57        35.2360   26.6264   29.3904 O.2       1 UNK         0.0000 
     58 C58        33.7937   26.6881   31.2704 C.3       1 UNK         0.0000 
     59 H59        34.5615   26.1194   31.8102 H         1 UNK         0.0000 
     60 C60        32.8889   25.5813   30.5804 C.3       1 UNK         0.0000 
     61 H61        32.2767   25.0448   31.3162 H         1 UNK         0.0000 
     62 H62        33.6223   24.9187   30.1035 H         1 UNK         0.0000 
     63 C63        31.9435   26.0874   29.4509 C.3       1 UNK         0.0000 
     64 H64        31.3014   26.8820   29.8498 H         1 UNK         0.0000 
     65 H65        32.5147   26.5979   28.6651 H         1 UNK         0.0000 
     66 C66        31.1559   25.0812   28.7305 C.ar      1 UNK         0.0000 
     67 C67        30.0942   24.3541   29.3654 C.ar      1 UNK         0.0000 
     68 H68        29.8772   24.5971   30.4013 H         1 UNK         0.0000 
     69 C69        29.3934   23.3642   28.6988 C.ar      1 UNK         0.0000 
     70 H70        28.6584   22.7806   29.2444 H         1 UNK         0.0000 
     71 C71        29.7476   22.9853   27.3350 C.ar      1 UNK         0.0000 
     72 H72        29.2504   22.1455   26.8569 H         1 UNK         0.0000 
     73 C73        30.7390   23.7860   26.7026 C.ar      1 UNK         0.0000 
     74 H74        31.0402   23.6559   25.6683 H         1 UNK         0.0000 
     75 C75        31.4060   24.8476   27.3930 C.ar      1 UNK         0.0000 
     76 H76        32.2556   25.3269   26.9151 H         1 UNK         0.0000 
     77 C77        27.6824   28.5353   38.6169 C.3       1 UNK         0.0000 
     78 H78        26.9361   29.2008   38.1666 H         1 UNK         0.0000 
     79 H79        28.5407   29.0739   39.0372 H         1 UNK         0.0000 
     80 H80        27.1687   27.9961   39.4217 H         1 UNK         0.0000 
     81 S81        28.3048   27.3696   37.3891 S.3       1 UNK         0.0000 
     82 C82        29.8823   27.0664   38.2290 C.3       1 UNK         0.0000 
     83 H83        30.4954   27.9326   38.5025 H         1 UNK         0.0000 
     84 H84        30.5672   26.4654   37.6178 H         1 UNK         0.0000 
     85 H85        29.7591   26.5137   39.1689 H         1 UNK         0.0000 
     86 O86        28.7005   28.1465   36.1602 O.2       1 UNK         0.0000 
     87 C87        29.3761   30.4787   31.4471 C.3       1 UNK         0.0000 
     88 H88        29.2724   29.4049   31.6410 H         1 UNK         0.0000 
     89 H89        28.5594   31.0711   31.0161 H         1 UNK         0.0000 
     90 H90        29.6774   30.9186   32.4067 H         1 UNK         0.0000 
     91 S91        30.7075   30.7956   30.3037 S.3       1 UNK         0.0000 
     92 C92        30.1137   29.6127   29.1031 C.3       1 UNK         0.0000 
     93 H93        30.7489   29.5873   28.2084 H         1 UNK         0.0000 
     94 H94        29.1209   29.9377   28.7687 H         1 UNK         0.0000 
     95 H95        30.1955   28.6073   29.5335 H         1 UNK         0.0000 
     96 O96        31.8366   30.1771   31.0281 O.2       1 UNK         0.0000 
@<TRIPOS>BOND
     1    1    2 1    
     2    1    5 1    
     3    1    3 1    
     4    1    4 1    
     5    5   14 1    
     6    5   10 1    
     7    5    6 1    
     8    6    8 1    
     9    6    7 1    
    10    6    9 1    
    11   10   12 1    
    12   10   11 1    
    13   10   13 1    
    14   14   15 1    
    15   15   17 am   BACKBONE|DICT|INTERRES
    16   15   16 2    
    17   17   18 1    
    18   17   19 1    
    19   19   24 1    
    20   19   25 1    
    21   19   20 1    
    22   20   23 2    
    23   20   21 am   BACKBONE|DICT|INTERRES
    24   21   22 1    
    25   21   58 1    
    26   25   27 1    
    27   25   26 1    
    28   25   28 1    
    29   28   33 ar   
    30   28   29 ar   
    31   29   30 ar   
    32   29   32 1    
    33   30   37 ar   
    34   30   31 1    
    35   33   34 1    
    36   33   35 ar   
    37   35   36 1    
    38   35   37 ar   
    39   37   38 1    
    40   38   39 1    
    41   39   40 ar   
    42   39   44 ar   
    43   40   43 1    
    44   40   41 ar   
    45   41   42 1    
    46   41   48 ar   
    47   44   45 1    
    48   44   46 ar   
    49   46   47 1    
    50   46   48 ar   
    51   48   49 1    
    52   49   51 1    
    53   49   50 2    
    54   51   53 1    
    55   51   54 1    
    56   51   52 1    
    57   54   56 am   BACKBONE|DICT|INTERRES
    58   54   55 1    
    59   56   58 1    
    60   56   57 2    
    61   58   59 1    
    62   58   60 1    
    63   60   61 1    
    64   60   62 1    
    65   60   63 1    
    66   63   64 1    
    67   63   65 1    
    68   63   66 1    
    69   66   67 ar   
    70   66   75 ar   
    71   67   68 1    
    72   67   69 ar   
    73   69   70 1    
    74   69   71 ar   
    75   71   72 1    
    76   71   73 ar   
    77   73   75 ar   
    78   73   74 1    
    79   75   76 1    
    80   77   79 1    
    81   77   80 1    
    82   77   78 1    
    83   77   81 1    
    84   81   82 1    
    85   81   86 2    
    86   82   83 1    
    87   82   85 1    
    88   82   84 1    
    89   87   88 1    
    90   87   90 1    
    91   87   89 1    
    92   87   91 1    
    93   91   96 2    
    94   91   92 1    
    95   92   95 1    
    96   92   93 1    
    97   92   94 1    
@<TRIPOS>SUBSTRUCTURE
     1 UNK         1 GROUP             0       ****    0 ROOT    
@<TRIPOS>MOLECULE
Cpd4-2500
96   97    1
SMALL
USER_CHARGES


@<TRIPOS>ATOM
      1 C1         27.6749   25.7016   31.7562 C.3       1 UNK         0.0000 
      2 H2         28.2423   26.1704   30.9431 H         1 UNK         0.0000 
      3 H3         26.7528   25.2254   31.4001 H         1 UNK         0.0000 
      4 H4         27.5282   26.5257   32.4644 H         1 UNK         0.0000 
      5 C5         28.5098   24.7850   32.5598 C.3       1 UNK         0.0000 
      6 C6         29.2130   23.6742   31.7366 C.3       1 UNK         0.0000 
      7 H7         28.4675   22.9156   31.4701 H         1 UNK         0.0000 
      8 H8         29.6522   24.0932   30.8233 H         1 UNK         0.0000 
      9 H9         30.0114   23.1853   32.3073 H         1 UNK         0.0000 
     10 C10        27.5743   24.0656   33.4684 C.3       1 UNK         0.0000 
     11 H11        26.8970   23.2724   33.1286 H         1 UNK         0.0000 
     12 H12        28.2948   23.5335   34.1027 H         1 UNK         0.0000 
     13 H13        27.0770   24.8792   34.0112 H         1 UNK         0.0000 
     14 O14        29.3877   25.4877   33.4229 O.3       1 UNK         0.0000 
     15 C15        30.3348   26.3756   33.0240 C.2       1 UNK         0.0000 
     16 O16        30.4614   26.6815   31.8626 O.2       1 UNK         0.0000 
     17 N17        30.9204   26.9387   34.1001 N.am      1 UNK         0.0000 
     18 H18        30.4964   26.6758   34.9819 H         1 UNK         0.0000 
     19 C19        31.8480   28.1119   34.0334 C.3       1 UNK         0.0000 
     20 C20        33.2545   27.7278   33.5101 C.2       1 UNK         0.0000 
     21 N21        33.2348   27.6450   32.1461 N.am      1 UNK         0.0000 
     22 H22        32.3998   28.0300   31.7218 H         1 UNK         0.0000 
     23 O23        34.2103   27.2985   34.1605 O.2       1 UNK         0.0000 
     24 H24        31.4640   28.7904   33.2624 H         1 UNK         0.0000 
     25 C25        31.7493   28.9071   35.3213 C.3       1 UNK         0.0000 
     26 H26        32.1485   28.3481   36.1769 H         1 UNK         0.0000 
     27 H27        30.6880   29.0396   35.5677 H         1 UNK         0.0000 
     28 C28        32.3224   30.2906   35.1733 C.ar      1 UNK         0.0000 
     29 C29        31.6884   31.2493   34.4177 C.ar      1 UNK         0.0000 
     30 C30        32.3252   32.4201   34.0404 C.ar      1 UNK         0.0000 
     31 H31        31.9279   33.1308   33.3218 H         1 UNK         0.0000 
     32 H32        30.7407   31.0193   33.9393 H         1 UNK         0.0000 
     33 C33        33.6505   30.5867   35.5793 C.ar      1 UNK         0.0000 
     34 H34        34.1942   29.7972   36.0886 H         1 UNK         0.0000 
     35 C35        34.3480   31.7377   35.1748 C.ar      1 UNK         0.0000 
     36 H36        35.3990   31.9535   35.3471 H         1 UNK         0.0000 
     37 C37        33.6780   32.6543   34.3309 C.ar      1 UNK         0.0000 
     38 O38        34.4110   33.5053   33.5416 O.3       1 UNK         0.0000 
     39 C39        34.5356   33.0333   32.3093 C.ar      1 UNK         0.0000 
     40 C40        35.4108   31.9130   32.1848 C.ar      1 UNK         0.0000 
     41 C41        35.3285   31.1997   30.9981 C.ar      1 UNK         0.0000 
     42 H42        35.9024   30.2808   30.9218 H         1 UNK         0.0000 
     43 H43        36.0901   31.6148   32.9775 H         1 UNK         0.0000 
     44 C44        33.8094   33.4952   31.1943 C.ar      1 UNK         0.0000 
     45 H45        33.1454   34.3403   31.3514 H         1 UNK         0.0000 
     46 C46        33.7787   32.7398   30.0473 C.ar      1 UNK         0.0000 
     47 H47        33.0565   33.0533   29.2990 H         1 UNK         0.0000 
     48 C48        34.4136   31.4817   30.0019 C.ar      1 UNK         0.0000 
     49 C49        34.3285   30.7652   28.6788 C.2       1 UNK         0.0000 
     50 O50        33.8519   31.3285   27.7026 O.2       1 UNK         0.0000 
     51 C51        34.7144   29.2538   28.5055 C.3       1 UNK         0.0000 
     52 H52        34.2383   28.9206   27.5752 H         1 UNK         0.0000 
     53 H53        35.7944   29.0763   28.4374 H         1 UNK         0.0000 
     54 N54        34.1041   28.4868   29.6074 N.am      1 UNK         0.0000 
     55 H55        33.2870   28.7903   30.1236 H         1 UNK         0.0000 
     56 C56        34.7687   27.3495   30.1077 C.2       1 UNK         0.0000 
     57 O57        35.7466   26.9358   29.5886 O.2       1 UNK         0.0000 
     58 C58        34.2698   26.8134   31.4263 C.3       1 UNK         0.0000 
     59 H59        35.1982   26.7390   32.0058 H         1 UNK         0.0000 
     60 C60        33.6673   25.4352   31.2316 C.3       1 UNK         0.0000 
     61 H61        34.1954   24.8978   30.4343 H         1 UNK         0.0000 
     62 H62        32.6745   25.5517   30.7823 H         1 UNK         0.0000 
     63 C63        33.5633   24.5817   32.4858 C.3       1 UNK         0.0000 
     64 H64        33.1388   25.1092   33.3487 H         1 UNK         0.0000 
     65 H65        32.8263   23.8195   32.2012 H         1 UNK         0.0000 
     66 C66        34.8423   23.9243   32.9435 C.ar      1 UNK         0.0000 
     67 C67        35.4041   24.2542   34.2335 C.ar      1 UNK         0.0000 
     68 H68        34.8898   24.9540   34.8861 H         1 UNK         0.0000 
     69 C69        36.5320   23.6943   34.7835 C.ar      1 UNK         0.0000 
     70 H70        36.9683   24.0094   35.7274 H         1 UNK         0.0000 
     71 C71        37.1698   22.6792   34.0754 C.ar      1 UNK         0.0000 
     72 H72        38.0801   22.3582   34.5727 H         1 UNK         0.0000 
     73 C73        36.6391   22.1719   32.8858 C.ar      1 UNK         0.0000 
     74 H74        37.1978   21.3614   32.4281 H         1 UNK         0.0000 
     75 C75        35.5006   22.8090   32.3299 C.ar      1 UNK         0.0000 
     76 H76        35.0863   22.5011   31.3747 H         1 UNK         0.0000 
     77 C77        28.7994   29.8833   30.1897 C.3       1 UNK         0.0000 
     78 H78        28.6807   29.5965   31.2410 H         1 UNK         0.0000 
     79 H79        28.5706   28.9921   29.5928 H         1 UNK         0.0000 
     80 H80        28.0391   30.6388   29.9570 H         1 UNK         0.0000 
     81 S81        30.5056   30.3431   29.9076 S.3       1 UNK         0.0000 
     82 C82        30.4693   30.1199   28.0936 C.3       1 UNK         0.0000 
     83 H83        31.5307   30.2579   27.8552 H         1 UNK         0.0000 
     84 H84        29.8999   30.8820   27.5486 H         1 UNK         0.0000 
     85 H85        30.1719   29.1187   27.7579 H         1 UNK         0.0000 
     86 O86        31.4408   29.3953   30.5477 O.2       1 UNK         0.0000 
     87 C87        30.2805   24.0769   36.4245 C.3       1 UNK         0.0000 
     88 H88        29.7986   23.1428   36.7398 H         1 UNK         0.0000 
     89 H89        31.3604   24.0037   36.5996 H         1 UNK         0.0000 
     90 H90        29.9769   24.3713   35.4126 H         1 UNK         0.0000 
     91 S91        29.8949   25.3744   37.6463 S.3       1 UNK         0.0000 
     92 C92        28.2896   25.6966   36.8695 C.3       1 UNK         0.0000 
     93 H93        28.4981   26.1665   35.9010 H         1 UNK         0.0000 
     94 H94        27.6402   26.3187   37.4979 H         1 UNK         0.0000 
     95 H95        27.6916   24.7877   36.7248 H         1 UNK         0.0000 
     96 O96        30.6491   26.5267   37.0436 O.2       1 UNK         0.0000 
@<TRIPOS>BOND
     1    1    5 1    
     2    1    4 1    
     3    1    2 1    
     4    1    3 1    
     5    5   10 1    
     6    5   14 1    
     7    5    6 1    
     8    6    9 1    
     9    6    7 1    
    10    6    8 1    
    11   10   12 1    
    12   10   13 1    
    13   10   11 1    
    14   14   15 1    
    15   15   17 am   BACKBONE|DICT|INTERRES
    16   15   16 2    
    17   17   19 1    
    18   17   18 1    
    19   19   24 1    
    20   19   25 1    
    21   19   20 1    
    22   20   23 2    
    23   20   21 am   BACKBONE|DICT|INTERRES
    24   21   22 1    
    25   21   58 1    
    26   25   27 1    
    27   25   26 1    
    28   25   28 1    
    29   28   33 ar   
    30   28   29 ar   
    31   29   30 ar   
    32   29   32 1    
    33   30   37 ar   
    34   30   31 1    
    35   33   34 1    
    36   33   35 ar   
    37   35   36 1    
    38   35   37 ar   
    39   37   38 1    
    40   38   39 1    
    41   39   40 ar   
    42   39   44 ar   
    43   40   43 1    
    44   40   41 ar   
    45   41   42 1    
    46   41   48 ar   
    47   44   45 1    
    48   44   46 ar   
    49   46   47 1    
    50   46   48 ar   
    51   48   49 1    
    52   49   50 2    
    53   49   51 1    
    54   51   54 1    
    55   51   52 1    
    56   51   53 1    
    57   54   56 am   BACKBONE|DICT|INTERRES
    58   54   55 1    
    59   56   58 1    
    60   56   57 2    
    61   58   59 1    
    62   58   60 1    
    63   60   63 1    
    64   60   61 1    
    65   60   62 1    
    66   63   66 1    
    67   63   64 1    
    68   63   65 1    
    69   66   67 ar   
    70   66   75 ar   
    71   67   69 ar   
    72   67   68 1    
    73   69   70 1    
    74   69   71 ar   
    75   71   72 1    
    76   71   73 ar   
    77   73   74 1    
    78   73   75 ar   
    79   75   76 1    
    80   77   78 1    
    81   77   79 1    
    82   77   80 1    
    83   77   81 1    
    84   81   86 2    
    85   81   82 1    
    86   82   83 1    
    87   82   84 1    
    88   82   85 1    
    89   87   89 1    
    90   87   88 1    
    91   87   91 1    
    92   87   90 1    
    93   91   92 1    
    94   91   96 2    
    95   92   94 1    
    96   92   93 1    
    97   92   95 1    
@<TRIPOS>SUBSTRUCTURE
     1 UNK         1 GROUP             0       ****    0 ROOT    
@<TRIPOS>MOLECULE
Cpd4-3000
96   97    1
SMALL
USER_CHARGES


@<TRIPOS>ATOM
      1 C1         27.5031   25.6073   31.8485 C.3       1 UNK         0.0000 
      2 H2         27.8204   26.3365   31.0929 H         1 UNK         0.0000 
      3 H3         26.8411   24.8882   31.3492 H         1 UNK         0.0000 
      4 H4         26.7910   26.0984   32.5238 H         1 UNK         0.0000 
      5 C5         28.6403   24.9154   32.5838 C.3       1 UNK         0.0000 
      6 C6         29.5431   24.1461   31.6460 C.3       1 UNK         0.0000 
      7 H7         30.2437   24.7754   31.0833 H         1 UNK         0.0000 
      8 H8         30.1651   23.4004   32.1568 H         1 UNK         0.0000 
      9 H9         29.0107   23.5252   30.9159 H         1 UNK         0.0000 
     10 C10        27.9951   23.9034   33.5908 C.3       1 UNK         0.0000 
     11 H11        27.3439   23.1904   33.0707 H         1 UNK         0.0000 
     12 H12        28.7380   23.3821   34.2063 H         1 UNK         0.0000 
     13 H13        27.2928   24.4385   34.2418 H         1 UNK         0.0000 
     14 O14        29.3457   25.7442   33.4006 O.3       1 UNK         0.0000 
     15 C15        29.9207   26.8480   32.8995 C.2       1 UNK         0.0000 
     16 O16        30.2167   27.1247   31.7591 O.2       1 UNK         0.0000 
     17 N17        30.6500   27.2522   33.9577 N.am      1 UNK         0.0000 
     18 H18        30.3180   26.8014   34.8023 H         1 UNK         0.0000 
     19 C19        31.7446   28.2766   33.9572 C.3       1 UNK         0.0000 
     20 C20        33.0805   27.6576   33.5248 C.2       1 UNK         0.0000 
     21 N21        33.2245   27.6667   32.1584 N.am      1 UNK         0.0000 
     22 H22        32.5358   28.1630   31.6049 H         1 UNK         0.0000 
     23 O23        33.8854   27.0696   34.2307 O.2       1 UNK         0.0000 
     24 H24        31.5013   29.0953   33.2701 H         1 UNK         0.0000 
     25 C25        31.8427   28.9300   35.3984 C.3       1 UNK         0.0000 
     26 H26        32.3786   28.3167   36.1333 H         1 UNK         0.0000 
     27 H27        30.8227   29.0758   35.7734 H         1 UNK         0.0000 
     28 C28        32.4501   30.2652   35.1267 C.ar      1 UNK         0.0000 
     29 C29        31.6487   31.2799   34.6648 C.ar      1 UNK         0.0000 
     30 C30        32.2592   32.4592   34.2420 C.ar      1 UNK         0.0000 
     31 H31        31.7020   33.1830   33.6542 H         1 UNK         0.0000 
     32 H32        30.5944   31.1359   34.4486 H         1 UNK         0.0000 
     33 C33        33.7805   30.4822   35.3895 C.ar      1 UNK         0.0000 
     34 H34        34.3539   29.6776   35.8411 H         1 UNK         0.0000 
     35 C35        34.4659   31.5931   34.9355 C.ar      1 UNK         0.0000 
     36 H36        35.5519   31.6288   34.9419 H         1 UNK         0.0000 
     37 C37        33.6994   32.6306   34.3998 C.ar      1 UNK         0.0000 
     38 O38        34.3047   33.5571   33.6211 O.3       1 UNK         0.0000 
     39 C39        34.5360   33.1105   32.3060 C.ar      1 UNK         0.0000 
     40 C40        35.5051   32.1221   31.9930 C.ar      1 UNK         0.0000 
     41 C41        35.4801   31.3404   30.8307 C.ar      1 UNK         0.0000 
     42 H42        36.2787   30.6210   30.6765 H         1 UNK         0.0000 
     43 H43        36.1816   31.7937   32.7765 H         1 UNK         0.0000 
     44 C44        33.5951   33.4410   31.2759 C.ar      1 UNK         0.0000 
     45 H45        32.8898   34.2542   31.4243 H         1 UNK         0.0000 
     46 C46        33.5279   32.7066   30.0477 C.ar      1 UNK         0.0000 
     47 H47        32.7838   32.9564   29.2966 H         1 UNK         0.0000 
     48 C48        34.4908   31.6302   29.8446 C.ar      1 UNK         0.0000 
     49 C49        34.3808   30.7969   28.5682 C.2       1 UNK         0.0000 
     50 O50        33.8607   31.2616   27.5902 O.2       1 UNK         0.0000 
     51 C51        34.8380   29.3600   28.6474 C.3       1 UNK         0.0000 
     52 H52        34.5050   28.8852   27.7166 H         1 UNK         0.0000 
     53 H53        35.9321   29.3715   28.7322 H         1 UNK         0.0000 
     54 N54        34.3034   28.4735   29.7740 N.am      1 UNK         0.0000 
     55 H55        33.5622   28.8489   30.3519 H         1 UNK         0.0000 
     56 C56        34.8899   27.2955   30.1729 C.2       1 UNK         0.0000 
     57 O57        35.8624   26.8109   29.6248 O.2       1 UNK         0.0000 
     58 C58        34.1248   26.7129   31.4575 C.3       1 UNK         0.0000 
     59 H59        34.8972   26.5099   32.2102 H         1 UNK         0.0000 
     60 C60        33.2954   25.4392   31.0344 C.3       1 UNK         0.0000 
     61 H61        32.6836   25.6597   30.1514 H         1 UNK         0.0000 
     62 H62        32.6462   25.2552   31.8998 H         1 UNK         0.0000 
     63 C63        34.0512   24.1045   30.9426 C.3       1 UNK         0.0000 
     64 H64        34.8553   24.1959   30.2018 H         1 UNK         0.0000 
     65 H65        34.4533   23.9408   31.9500 H         1 UNK         0.0000 
     66 C66        33.1545   22.9528   30.6510 C.ar      1 UNK         0.0000 
     67 C67        32.7544   22.0712   31.7169 C.ar      1 UNK         0.0000 
     68 H68        33.0773   22.2456   32.7394 H         1 UNK         0.0000 
     69 C69        31.9405   20.9759   31.3943 C.ar      1 UNK         0.0000 
     70 H70        31.6840   20.2550   32.1649 H         1 UNK         0.0000 
     71 C71        31.6099   20.7197   30.0676 C.ar      1 UNK         0.0000 
     72 H72        31.0527   19.8162   29.8398 H         1 UNK         0.0000 
     73 C73        31.9609   21.5556   29.0460 C.ar      1 UNK         0.0000 
     74 H74        31.7425   21.2533   28.0252 H         1 UNK         0.0000 
     75 C75        32.6844   22.7407   29.3714 C.ar      1 UNK         0.0000 
     76 H76        33.0347   23.3173   28.5195 H         1 UNK         0.0000 
     77 C77        30.5022   32.0741   30.9013 C.3       1 UNK         0.0000 
     78 H78        29.5483   32.0089   31.4397 H         1 UNK         0.0000 
     79 H79        30.2527   32.8947   30.2177 H         1 UNK         0.0000 
     80 H80        31.3165   32.3579   31.5790 H         1 UNK         0.0000 
     81 S81        30.8262   30.6066   29.9917 S.3       1 UNK         0.0000 
     82 C82        29.1002   30.0582   29.9847 C.3       1 UNK         0.0000 
     83 H83        29.0967   29.1692   29.3427 H         1 UNK         0.0000 
     84 H84        28.4628   30.8641   29.6005 H         1 UNK         0.0000 
     85 H85        28.9108   29.6603   30.9898 H         1 UNK         0.0000 
     86 O86        31.6046   29.6719   30.7693 O.2       1 UNK         0.0000 
     87 C87        31.4696   24.3199   36.0769 C.3       1 UNK         0.0000 
     88 H88        30.8549   23.8944   35.2748 H         1 UNK         0.0000 
     89 H89        31.9110   23.4403   36.5619 H         1 UNK         0.0000 
     90 H90        32.1334   25.0984   35.6819 H         1 UNK         0.0000 
     91 S91        30.5531   25.1845   37.3279 S.3       1 UNK         0.0000 
     92 C92        29.2803   23.9492   37.2315 C.3       1 UNK         0.0000 
     93 H93        28.7474   23.9658   36.2723 H         1 UNK         0.0000 
     94 H94        28.6015   24.1116   38.0772 H         1 UNK         0.0000 
     95 H95        29.6115   22.9040   37.2651 H         1 UNK         0.0000 
     96 O96        30.0848   26.4639   36.6662 O.2       1 UNK         0.0000 
@<TRIPOS>BOND
     1    1    5 1    
     2    1    4 1    
     3    1    2 1    
     4    1    3 1    
     5    5   14 1    
     6    5   10 1    
     7    5    6 1    
     8    6    8 1    
     9    6    7 1    
    10    6    9 1    
    11   10   12 1    
    12   10   13 1    
    13   10   11 1    
    14   14   15 1    
    15   15   17 am   BACKBONE|DICT|INTERRES
    16   15   16 2    
    17   17   19 1    
    18   17   18 1    
    19   19   24 1    
    20   19   25 1    
    21   19   20 1    
    22   20   23 2    
    23   20   21 am   BACKBONE|DICT|INTERRES
    24   21   22 1    
    25   21   58 1    
    26   25   27 1    
    27   25   26 1    
    28   25   28 1    
    29   28   33 ar   
    30   28   29 ar   
    31   29   30 ar   
    32   29   32 1    
    33   30   37 ar   
    34   30   31 1    
    35   33   34 1    
    36   33   35 ar   
    37   35   36 1    
    38   35   37 ar   
    39   37   38 1    
    40   38   39 1    
    41   39   40 ar   
    42   39   44 ar   
    43   40   43 1    
    44   40   41 ar   
    45   41   42 1    
    46   41   48 ar   
    47   44   45 1    
    48   44   46 ar   
    49   46   47 1    
    50   46   48 ar   
    51   48   49 1    
    52   49   50 2    
    53   49   51 1    
    54   51   53 1    
    55   51   54 1    
    56   51   52 1    
    57   54   56 am   BACKBONE|DICT|INTERRES
    58   54   55 1    
    59   56   58 1    
    60   56   57 2    
    61   58   59 1    
    62   58   60 1    
    63   60   62 1    
    64   60   61 1    
    65   60   63 1    
    66   63   65 1    
    67   63   64 1    
    68   63   66 1    
    69   66   67 ar   
    70   66   75 ar   
    71   67   68 1    
    72   67   69 ar   
    73   69   70 1    
    74   69   71 ar   
    75   71   72 1    
    76   71   73 ar   
    77   73   75 ar   
    78   73   74 1    
    79   75   76 1    
    80   77   78 1    
    81   77   80 1    
    82   77   79 1    
    83   77   81 1    
    84   81   82 1    
    85   81   86 2    
    86   82   85 1    
    87   82   83 1    
    88   82   84 1    
    89   87   89 1    
    90   87   91 1    
    91   87   88 1    
    92   87   90 1    
    93   91   92 1    
    94   91   96 2    
    95   92   94 1    
    96   92   93 1    
    97   92   95 1    
@<TRIPOS>SUBSTRUCTURE
     1 UNK         1 GROUP             0       ****    0 ROOT    
@<TRIPOS>MOLECULE
Cpd4-3500-MEC
96   97    1
SMALL
USER_CHARGES


@<TRIPOS>ATOM
      1 C1         27.8140   24.2340   32.6940 C.3       1 UNK         0.0000 
      2 H2         27.1460   24.7620   33.3850 H         1 UNK         0.0000 
      3 H3         28.1500   24.8320   31.8380 H         1 UNK         0.0000 
      4 H4         27.3230   23.3050   32.3790 H         1 UNK         0.0000 
      5 C5         28.9410   23.8610   33.6720 C.3       1 UNK         0.0000 
      6 C6         30.0140   23.0140   32.9840 C.3       1 UNK         0.0000 
      7 H7         30.3840   23.5640   32.1100 H         1 UNK         0.0000 
      8 H8         30.9130   22.8800   33.5970 H         1 UNK         0.0000 
      9 H9         29.6280   22.0310   32.6850 H         1 UNK         0.0000 
     10 C10        28.4680   23.0600   34.9010 C.3       1 UNK         0.0000 
     11 H11        27.9060   22.1870   34.5490 H         1 UNK         0.0000 
     12 H12        29.3410   22.6880   35.4510 H         1 UNK         0.0000 
     13 H13        27.8580   23.6210   35.6190 H         1 UNK         0.0000 
     14 O14        29.3340   25.0520   34.3090 O.3       1 UNK         0.0000 
     15 C15        30.0230   25.9900   33.6400 C.2       1 UNK         0.0000 
     16 O16        30.1540   26.0660   32.4420 O.2       1 UNK         0.0000 
     17 N17        30.5240   26.8480   34.5600 N.am      1 UNK         0.0000 
     18 H18        30.3180   26.7070   35.5420 H         1 UNK         0.0000 
     19 C19        31.4760   27.9420   34.1630 C.3       1 UNK         0.0000 
     20 C20        32.7860   27.3680   33.5900 C.2       1 UNK         0.0000 
     21 N21        33.0730   27.6090   32.2920 N.am      1 UNK         0.0000 
     22 H22        32.3810   28.1400   31.7790 H         1 UNK         0.0000 
     23 O23        33.5820   26.8340   34.3530 O.2       1 UNK         0.0000 
     24 H24        30.9980   28.5950   33.4220 H         1 UNK         0.0000 
     25 C25        31.8170   28.8530   35.4130 C.3       1 UNK         0.0000 
     26 H26        32.3570   28.2870   36.1820 H         1 UNK         0.0000 
     27 H27        30.8850   29.1890   35.8840 H         1 UNK         0.0000 
     28 C28        32.5250   30.1440   35.0640 C.ar      1 UNK         0.0000 
     29 C29        31.7550   31.3200   34.8380 C.ar      1 UNK         0.0000 
     30 C30        32.3680   32.4830   34.3760 C.ar      1 UNK         0.0000 
     31 H31        31.7600   33.3430   34.1090 H         1 UNK         0.0000 
     32 H32        30.7000   31.2800   35.0920 H         1 UNK         0.0000 
     33 C33        33.8960   30.1780   34.9090 C.ar      1 UNK         0.0000 
     34 H34        34.4760   29.2600   34.9050 H         1 UNK         0.0000 
     35 C35        34.5790   31.3700   34.5090 C.ar      1 UNK         0.0000 
     36 H36        35.6230   31.2080   34.2550 H         1 UNK         0.0000 
     37 C37        33.7810   32.4770   34.1850 C.ar      1 UNK         0.0000 
     38 O38        34.3730   33.5380   33.5180 O.3       1 UNK         0.0000 
     39 C39        34.5250   33.2030   32.1600 C.ar      1 UNK         0.0000 
     40 C40        35.6650   32.4880   31.8220 C.ar      1 UNK         0.0000 
     41 C41        35.6670   31.6720   30.6500 C.ar      1 UNK         0.0000 
     42 H42        36.5010   31.0080   30.4400 H         1 UNK         0.0000 
     43 H43        36.4840   32.5090   32.5350 H         1 UNK         0.0000 
     44 C44        33.4090   33.2260   31.2700 C.ar      1 UNK         0.0000 
     45 H45        32.5000   33.7580   31.5330 H         1 UNK         0.0000 
     46 C46        33.4330   32.5820   30.0330 C.ar      1 UNK         0.0000 
     47 H47        32.6500   32.5940   29.2810 H         1 UNK         0.0000 
     48 C48        34.5720   31.7460   29.7520 C.ar      1 UNK         0.0000 
     49 C49        34.4930   30.8710   28.5810 C.2       1 UNK         0.0000 
     50 O50        33.8750   31.1180   27.5160 O.2       1 UNK         0.0000 
     51 C51        34.9910   29.4450   28.7680 C.3       1 UNK         0.0000 
     52 H52        34.6550   28.8310   27.9230 H         1 UNK         0.0000 
     53 H53        36.0870   29.4160   28.7380 H         1 UNK         0.0000 
     54 N54        34.4300   28.8860   30.0420 N.am      1 UNK         0.0000 
     55 H55        33.6160   29.2700   30.5060 H         1 UNK         0.0000 
     56 C56        34.8090   27.6350   30.4320 C.2       1 UNK         0.0000 
     57 O57        35.7720   27.0600   29.9110 O.2       1 UNK         0.0000 
     58 C58        34.1290   26.8820   31.6350 C.3       1 UNK         0.0000 
     59 H59        34.9760   26.7300   32.3150 H         1 UNK         0.0000 
     60 C60        33.5430   25.5300   31.0530 C.3       1 UNK         0.0000 
     61 H61        33.0450   24.9450   31.8350 H         1 UNK         0.0000 
     62 H62        34.3060   24.8500   30.6540 H         1 UNK         0.0000 
     63 C63        32.5900   25.7490   29.8990 C.3       1 UNK         0.0000 
     64 H64        31.6750   26.3010   30.1500 H         1 UNK         0.0000 
     65 H65        33.0820   26.3210   29.1030 H         1 UNK         0.0000 
     66 C66        31.9940   24.4410   29.3480 C.ar      1 UNK         0.0000 
     67 C67        30.7120   24.1100   29.6740 C.ar      1 UNK         0.0000 
     68 H68        30.1280   24.8450   30.2180 H         1 UNK         0.0000 
     69 C69        30.1830   22.8940   29.2000 C.ar      1 UNK         0.0000 
     70 H70        29.1370   22.7180   29.4310 H         1 UNK         0.0000 
     71 C71        30.9300   22.0880   28.2970 C.ar      1 UNK         0.0000 
     72 H72        30.5190   21.1290   27.9940 H         1 UNK         0.0000 
     73 C73        32.2550   22.4320   28.0170 C.ar      1 UNK         0.0000 
     74 H74        32.8670   21.7450   27.4410 H         1 UNK         0.0000 
     75 C75        32.8130   23.6030   28.5710 C.ar      1 UNK         0.0000 
     76 H76        33.8220   23.9180   28.3240 H         1 UNK         0.0000 
     77 C77        31.9740   25.1650   37.1240 C.3       1 UNK         0.0000 
     78 H78        32.3960   24.2190   37.4870 H         1 UNK         0.0000 
     79 H79        32.7850   25.7930   36.7360 H         1 UNK         0.0000 
     80 H80        31.2880   24.7770   36.3610 H         1 UNK         0.0000 
     81 S81        30.8670   26.0080   38.2530 S.3       1 UNK         0.0000 
     82 C82        29.9760   24.4110   38.3290 C.3       1 UNK         0.0000 
     83 H83        29.2560   24.5670   39.1420 H         1 UNK         0.0000 
     84 H84        30.5300   23.5130   38.6280 H         1 UNK         0.0000 
     85 H85        29.4440   24.2340   37.3860 H         1 UNK         0.0000 
     86 O86        29.9810   26.8650   37.4210 O.2       1 UNK         0.0000 
     87 C87        29.0760   29.4390   31.7280 C.3       1 UNK         0.0000 
     88 H88        29.2010   28.5600   31.0840 H         1 UNK         0.0000 
     89 H89        28.1370   29.9330   31.4520 H         1 UNK         0.0000 
     90 H90        29.0680   29.2110   32.8010 H         1 UNK         0.0000 
     91 S91        30.4800   30.5670   31.3390 S.3       1 UNK         0.0000 
     92 C92        30.1080   30.5680   29.4850 C.3       1 UNK         0.0000 
     93 H93        30.7950   31.3250   29.0860 H         1 UNK         0.0000 
     94 H94        29.0410   30.7050   29.2700 H         1 UNK         0.0000 
     95 H95        30.3830   29.6100   29.0270 H         1 UNK         0.0000 
     96 O96        31.6750   29.7210   31.3310 O.2       1 UNK         0.0000 
@<TRIPOS>BOND
     1    1    2 1    
     2    1    5 1    
     3    1    3 1    
     4    1    4 1    
     5    5   14 1    
     6    5   10 1    
     7    5    6 1    
     8    6    8 1    
     9    6    7 1    
    10    6    9 1    
    11   10   12 1    
    12   10   13 1    
    13   10   11 1    
    14   14   15 1    
    15   15   17 am   BACKBONE|DICT|INTERRES
    16   15   16 2    
    17   17   18 1    
    18   17   19 1    
    19   19   24 1    
    20   19   25 1    
    21   19   20 1    
    22   20   23 2    
    23   20   21 am   BACKBONE|DICT|INTERRES
    24   21   22 1    
    25   21   58 1    
    26   25   27 1    
    27   25   26 1    
    28   25   28 1    
    29   28   29 ar   
    30   28   33 ar   
    31   29   32 1    
    32   29   30 ar   
    33   30   31 1    
    34   30   37 ar   
    35   33   34 1    
    36   33   35 ar   
    37   35   36 1    
    38   35   37 ar   
    39   37   38 1    
    40   38   39 1    
    41   39   40 ar   
    42   39   44 ar   
    43   40   43 1    
    44   40   41 ar   
    45   41   42 1    
    46   41   48 ar   
    47   44   45 1    
    48   44   46 ar   
    49   46   47 1    
    50   46   48 ar   
    51   48   49 1    
    52   49   51 1    
    53   49   50 2    
    54   51   54 1    
    55   51   52 1    
    56   51   53 1    
    57   54   56 am   BACKBONE|DICT|INTERRES
    58   54   55 1    
    59   56   58 1    
    60   56   57 2    
    61   58   59 1    
    62   58   60 1    
    63   60   61 1    
    64   60   62 1    
    65   60   63 1    
    66   63   64 1    
    67   63   65 1    
    68   63   66 1    
    69   66   67 ar   
    70   66   75 ar   
    71   67   68 1    
    72   67   69 ar   
    73   69   70 1    
    74   69   71 ar   
    75   71   72 1    
    76   71   73 ar   
    77   73   75 ar   
    78   73   74 1    
    79   75   76 1    
    80   77   78 1    
    81   77   81 1    
    82   77   79 1    
    83   77   80 1    
    84   81   82 1    
    85   81   86 2    
    86   82   84 1    
    87   82   83 1    
    88   82   85 1    
    89   87   90 1    
    90   87   88 1    
    91   87   89 1    
    92   87   91 1    
    93   91   92 1    
    94   91   96 2    
    95   92   93 1    
    96   92   94 1    
    97   92   95 1    
@<TRIPOS>SUBSTRUCTURE
     1 UNK         1 GROUP             0       ****    0 ROOT    
@<TRIPOS>MOLECULE
Cpd4-4000
96   97    1
SMALL
USER_CHARGES


@<TRIPOS>ATOM
      1 C1         26.4579   27.2732   34.5910 C.3       1 UNK         0.0000 
      2 H2         26.7172   28.3375   34.6412 H         1 UNK         0.0000 
      3 H3         25.3728   27.1545   34.4821 H         1 UNK         0.0000 
      4 H4         26.6055   26.7521   35.5445 H         1 UNK         0.0000 
      5 C5         27.1860   26.4659   33.4202 C.3       1 UNK         0.0000 
      6 C6         26.8276   26.9536   32.0428 C.3       1 UNK         0.0000 
      7 H7         26.6943   28.0421   32.0533 H         1 UNK         0.0000 
      8 H8         27.5909   26.6961   31.2983 H         1 UNK         0.0000 
      9 H9         25.7931   26.7386   31.7450 H         1 UNK         0.0000 
     10 C10        26.7328   24.9285   33.4871 C.3       1 UNK         0.0000 
     11 H11        27.0753   24.3796   34.3736 H         1 UNK         0.0000 
     12 H12        25.6444   24.8569   33.3681 H         1 UNK         0.0000 
     13 H13        27.0962   24.3369   32.6387 H         1 UNK         0.0000 
     14 O14        28.5583   26.4293   33.6661 O.3       1 UNK         0.0000 
     15 C15        29.2546   27.5883   33.4771 C.2       1 UNK         0.0000 
     16 O16        28.8188   28.6718   33.2599 O.2       1 UNK         0.0000 
     17 N17        30.5406   27.2778   33.7466 N.am      1 UNK         0.0000 
     18 H18        30.7254   26.3245   34.0329 H         1 UNK         0.0000 
     19 C19        31.6486   28.3216   33.8128 C.3       1 UNK         0.0000 
     20 C20        32.9877   27.8031   33.2796 C.2       1 UNK         0.0000 
     21 N21        33.1909   27.4448   31.9595 N.am      1 UNK         0.0000 
     22 H22        32.4288   27.6373   31.3200 H         1 UNK         0.0000 
     23 O23        33.9035   27.4388   34.0526 O.2       1 UNK         0.0000 
     24 H24        31.4071   29.0974   33.0751 H         1 UNK         0.0000 
     25 C25        31.5952   29.0242   35.2415 C.3       1 UNK         0.0000 
     26 H26        31.9081   28.2420   35.9436 H         1 UNK         0.0000 
     27 H27        30.5354   29.2446   35.4204 H         1 UNK         0.0000 
     28 C28        32.3757   30.3229   35.2577 C.ar      1 UNK         0.0000 
     29 C29        31.6349   31.4516   34.6932 C.ar      1 UNK         0.0000 
     30 C30        32.4042   32.5831   34.3352 C.ar      1 UNK         0.0000 
     31 H31        32.0100   33.4466   33.8069 H         1 UNK         0.0000 
     32 H32        30.5892   31.5201   34.4065 H         1 UNK         0.0000 
     33 C33        33.7709   30.3839   35.3221 C.ar      1 UNK         0.0000 
     34 H34        34.3906   29.5880   35.7256 H         1 UNK         0.0000 
     35 C35        34.4675   31.5420   34.9767 C.ar      1 UNK         0.0000 
     36 H36        35.5482   31.6317   35.0173 H         1 UNK         0.0000 
     37 C37        33.8064   32.5643   34.3817 C.ar      1 UNK         0.0000 
     38 O38        34.5556   33.3568   33.5616 O.3       1 UNK         0.0000 
     39 C39        34.5104   32.8512   32.2851 C.ar      1 UNK         0.0000 
     40 C40        35.5186   32.0281   31.9723 C.ar      1 UNK         0.0000 
     41 C41        35.4977   31.4106   30.7143 C.ar      1 UNK         0.0000 
     42 H42        36.2063   30.6419   30.4179 H         1 UNK         0.0000 
     43 H43        36.4250   31.9776   32.5678 H         1 UNK         0.0000 
     44 C44        33.6053   33.2854   31.3929 C.ar      1 UNK         0.0000 
     45 H45        32.9476   34.0676   31.7592 H         1 UNK         0.0000 
     46 C46        33.4345   32.5392   30.1810 C.ar      1 UNK         0.0000 
     47 H47        32.6053   32.7458   29.5106 H         1 UNK         0.0000 
     48 C48        34.3876   31.5371   29.8785 C.ar      1 UNK         0.0000 
     49 C49        34.1980   30.7023   28.6484 C.2       1 UNK         0.0000 
     50 O50        33.6115   31.2242   27.7513 O.2       1 UNK         0.0000 
     51 C51        34.7050   29.2839   28.5879 C.3       1 UNK         0.0000 
     52 H52        34.2943   28.7932   27.6964 H         1 UNK         0.0000 
     53 H53        35.8005   29.3429   28.5989 H         1 UNK         0.0000 
     54 N54        34.3440   28.5498   29.8349 N.am      1 UNK         0.0000 
     55 H55        33.3865   28.5039   30.1622 H         1 UNK         0.0000 
     56 C56        35.1097   27.4851   30.3574 C.2       1 UNK         0.0000 
     57 O57        36.1353   27.0696   29.8054 O.2       1 UNK         0.0000 
     58 C58        34.3824   26.7263   31.4986 C.3       1 UNK         0.0000 
     59 H59        35.0704   26.6636   32.3496 H         1 UNK         0.0000 
     60 C60        33.9797   25.2931   31.3110 C.3       1 UNK         0.0000 
     61 H61        34.8648   24.6926   31.0651 H         1 UNK         0.0000 
     62 H62        33.3147   25.2502   30.4403 H         1 UNK         0.0000 
     63 C63        33.4522   24.4836   32.5752 C.3       1 UNK         0.0000 
     64 H64        34.2939   24.3037   33.2549 H         1 UNK         0.0000 
     65 H65        32.6737   25.0397   33.1115 H         1 UNK         0.0000 
     66 C66        32.8586   23.1752   32.1397 C.ar      1 UNK         0.0000 
     67 C67        33.6763   22.1428   31.6718 C.ar      1 UNK         0.0000 
     68 H68        34.7522   22.2831   31.7310 H         1 UNK         0.0000 
     69 C69        33.1349   20.9252   31.2078 C.ar      1 UNK         0.0000 
     70 H70        33.8540   20.1486   30.9654 H         1 UNK         0.0000 
     71 C71        31.7379   20.7203   31.2402 C.ar      1 UNK         0.0000 
     72 H72        31.3287   19.7887   30.8598 H         1 UNK         0.0000 
     73 C73        30.9332   21.6714   31.8424 C.ar      1 UNK         0.0000 
     74 H74        29.8661   21.4718   31.8850 H         1 UNK         0.0000 
     75 C75        31.5053   22.8886   32.3516 C.ar      1 UNK         0.0000 
     76 H76        30.9417   23.5747   32.9768 H         1 UNK         0.0000 
     77 C77        31.3528   28.0012   28.5865 C.3       1 UNK         0.0000 
     78 H78        30.6083   27.6631   27.8555 H         1 UNK         0.0000 
     79 H79        31.7148   27.0816   29.0615 H         1 UNK         0.0000 
     80 H80        32.1778   28.5706   28.1410 H         1 UNK         0.0000 
     81 S81        30.5118   28.9923   29.7539 S.3       1 UNK         0.0000 
     82 C82        30.1605   30.2155   28.4800 C.3       1 UNK         0.0000 
     83 H83        31.1604   30.4144   28.0772 H         1 UNK         0.0000 
     84 H84        29.7971   31.1795   28.8565 H         1 UNK         0.0000 
     85 H85        29.5018   29.8418   27.6868 H         1 UNK         0.0000 
     86 O86        31.6770   29.5710   30.5464 O.2       1 UNK         0.0000 
     87 C87        30.7030   23.3923   37.7118 C.3       1 UNK         0.0000 
     88 H88        29.7321   22.8837   37.6889 H         1 UNK         0.0000 
     89 H89        30.6695   24.3361   38.2693 H         1 UNK         0.0000 
     90 H90        31.4621   22.6924   38.0829 H         1 UNK         0.0000 
     91 S91        31.2620   23.7126   35.9660 S.3       1 UNK         0.0000 
     92 C92        32.9525   24.3826   36.4632 C.3       1 UNK         0.0000 
     93 H93        32.8536   25.1924   37.1963 H         1 UNK         0.0000 
     94 H94        33.3545   24.8670   35.5650 H         1 UNK         0.0000 
     95 H95        33.7571   23.6657   36.6674 H         1 UNK         0.0000 
     96 O96        30.5765   24.9415   35.5173 O.2       1 UNK         0.0000 
@<TRIPOS>BOND
     1    1    2 1    
     2    1    4 1    
     3    1    3 1    
     4    1    5 1    
     5    5   14 1    
     6    5    6 1    
     7    5   10 1    
     8    6    7 1    
     9    6    8 1    
    10    6    9 1    
    11   10   11 1    
    12   10   12 1    
    13   10   13 1    
    14   14   15 1    
    15   15   17 am   BACKBONE|DICT|INTERRES
    16   15   16 2    
    17   17   19 1    
    18   17   18 1    
    19   19   24 1    
    20   19   25 1    
    21   19   20 1    
    22   20   23 2    
    23   20   21 am   BACKBONE|DICT|INTERRES
    24   21   22 1    
    25   21   58 1    
    26   25   28 1    
    27   25   27 1    
    28   25   26 1    
    29   28   29 ar   
    30   28   33 ar   
    31   29   30 ar   
    32   29   32 1    
    33   30   31 1    
    34   30   37 ar   
    35   33   34 1    
    36   33   35 ar   
    37   35   36 1    
    38   35   37 ar   
    39   37   38 1    
    40   38   39 1    
    41   39   40 ar   
    42   39   44 ar   
    43   40   43 1    
    44   40   41 ar   
    45   41   42 1    
    46   41   48 ar   
    47   44   45 1    
    48   44   46 ar   
    49   46   47 1    
    50   46   48 ar   
    51   48   49 1    
    52   49   50 2    
    53   49   51 1    
    54   51   54 1    
    55   51   52 1    
    56   51   53 1    
    57   54   56 am   BACKBONE|DICT|INTERRES
    58   54   55 1    
    59   56   58 1    
    60   56   57 2    
    61   58   59 1    
    62   58   60 1    
    63   60   63 1    
    64   60   61 1    
    65   60   62 1    
    66   63   64 1    
    67   63   65 1    
    68   63   66 1    
    69   66   75 ar   
    70   66   67 ar   
    71   67   68 1    
    72   67   69 ar   
    73   69   71 ar   
    74   69   70 1    
    75   71   73 ar   
    76   71   72 1    
    77   73   74 1    
    78   73   75 ar   
    79   75   76 1    
    80   77   79 1    
    81   77   81 1    
    82   77   78 1    
    83   77   80 1    
    84   81   86 2    
    85   81   82 1    
    86   82   84 1    
    87   82   83 1    
    88   82   85 1    
    89   87   90 1    
    90   87   89 1    
    91   87   88 1    
    92   87   91 1    
    93   91   92 1    
    94   91   96 2    
    95   92   95 1    
    96   92   93 1    
    97   92   94 1    
@<TRIPOS>SUBSTRUCTURE
     1 UNK         1 GROUP             0       ****    0 ROOT    
@<TRIPOS>MOLECULE
Cpd4-4500
96   97    1
SMALL
USER_CHARGES


@<TRIPOS>ATOM
      1 C1         27.3891   25.4463   32.8371 C.3       1 UNK         0.0000 
      2 H2         26.6791   24.9997   32.1294 H         1 UNK         0.0000 
      3 H3         26.9492   25.7665   33.7887 H         1 UNK         0.0000 
      4 H4         27.8275   26.3452   32.3859 H         1 UNK         0.0000 
      5 C5         28.4042   24.4295   33.3675 C.3       1 UNK         0.0000 
      6 C6         29.0642   23.7440   32.1692 C.3       1 UNK         0.0000 
      7 H7         28.4703   23.1147   31.4954 H         1 UNK         0.0000 
      8 H8         29.3921   24.5747   31.5320 H         1 UNK         0.0000 
      9 H9         29.9544   23.1869   32.4872 H         1 UNK         0.0000 
     10 C10        27.7941   23.3571   34.2690 C.3       1 UNK         0.0000 
     11 H11        26.9882   22.8124   33.7615 H         1 UNK         0.0000 
     12 H12        28.5575   22.6501   34.6157 H         1 UNK         0.0000 
     13 H13        27.4240   23.8715   35.1645 H         1 UNK         0.0000 
     14 O14        29.3341   25.1718   34.1283 O.3       1 UNK         0.0000 
     15 C15        30.1762   26.0106   33.5995 C.2       1 UNK         0.0000 
     16 O16        30.1980   26.4045   32.4891 O.2       1 UNK         0.0000 
     17 N17        30.7598   26.7223   34.5904 N.am      1 UNK         0.0000 
     18 H18        30.6485   26.4200   35.5511 H         1 UNK         0.0000 
     19 C19        31.7147   27.8935   34.3369 C.3       1 UNK         0.0000 
     20 C20        33.0894   27.5088   33.6731 C.2       1 UNK         0.0000 
     21 N21        33.1714   27.6056   32.2979 N.am      1 UNK         0.0000 
     22 H22        32.3382   27.9634   31.8452 H         1 UNK         0.0000 
     23 O23        34.0414   27.0513   34.2677 O.2       1 UNK         0.0000 
     24 H24        31.2369   28.4203   33.5025 H         1 UNK         0.0000 
     25 C25        31.7935   28.8401   35.5158 C.3       1 UNK         0.0000 
     26 H26        32.3322   28.3821   36.3549 H         1 UNK         0.0000 
     27 H27        30.7715   29.0665   35.8434 H         1 UNK         0.0000 
     28 C28        32.4871   30.1897   35.1313 C.ar      1 UNK         0.0000 
     29 C29        31.7600   31.0043   34.2561 C.ar      1 UNK         0.0000 
     30 C30        32.3231   32.2039   33.8513 C.ar      1 UNK         0.0000 
     31 H31        31.8658   32.7743   33.0481 H         1 UNK         0.0000 
     32 H32        30.7611   30.7018   33.9562 H         1 UNK         0.0000 
     33 C33        33.7300   30.6004   35.5354 C.ar      1 UNK         0.0000 
     34 H34        34.3188   30.0959   36.2958 H         1 UNK         0.0000 
     35 C35        34.2818   31.7587   35.0805 C.ar      1 UNK         0.0000 
     36 H36        35.2863   31.9553   35.4443 H         1 UNK         0.0000 
     37 C37        33.6554   32.5653   34.1601 C.ar      1 UNK         0.0000 
     38 O38        34.3076   33.5478   33.4518 O.3       1 UNK         0.0000 
     39 C39        34.6236   33.1602   32.2420 C.ar      1 UNK         0.0000 
     40 C40        35.3650   31.9148   32.1118 C.ar      1 UNK         0.0000 
     41 C41        35.3185   31.1982   30.9165 C.ar      1 UNK         0.0000 
     42 H42        35.9242   30.3009   30.8296 H         1 UNK         0.0000 
     43 H43        35.9940   31.6486   32.9559 H         1 UNK         0.0000 
     44 C44        33.9256   33.6968   31.1527 C.ar      1 UNK         0.0000 
     45 H45        33.2983   34.5774   31.2554 H         1 UNK         0.0000 
     46 C46        33.9778   33.0352   29.9213 C.ar      1 UNK         0.0000 
     47 H47        33.4972   33.5259   29.0797 H         1 UNK         0.0000 
     48 C48        34.5086   31.6874   29.8642 C.ar      1 UNK         0.0000 
     49 C49        34.3204   30.9137   28.5876 C.2       1 UNK         0.0000 
     50 O50        33.7898   31.4161   27.5916 O.2       1 UNK         0.0000 
     51 C51        34.7242   29.3889   28.6642 C.3       1 UNK         0.0000 
     52 H52        34.3336   28.8860   27.7712 H         1 UNK         0.0000 
     53 H53        35.8079   29.2882   28.5213 H         1 UNK         0.0000 
     54 N54        34.2033   28.5800   29.7988 N.am      1 UNK         0.0000 
     55 H55        33.3486   28.8593   30.2659 H         1 UNK         0.0000 
     56 C56        34.7909   27.4295   30.2464 C.2       1 UNK         0.0000 
     57 O57        35.7152   26.9044   29.6306 O.2       1 UNK         0.0000 
     58 C58        34.1626   26.8354   31.4964 C.3       1 UNK         0.0000 
     59 H59        34.9518   26.6291   32.2289 H         1 UNK         0.0000 
     60 C60        33.6070   25.4367   31.1210 C.3       1 UNK         0.0000 
     61 H61        33.3180   24.9580   32.0639 H         1 UNK         0.0000 
     62 H62        34.4373   24.8535   30.7053 H         1 UNK         0.0000 
     63 C63        32.4162   25.3121   30.1776 C.3       1 UNK         0.0000 
     64 H64        31.7540   24.4858   30.4650 H         1 UNK         0.0000 
     65 H65        31.7111   26.1445   30.2976 H         1 UNK         0.0000 
     66 C66        32.8696   24.9819   28.7340 C.ar      1 UNK         0.0000 
     67 C67        33.0609   23.6463   28.3130 C.ar      1 UNK         0.0000 
     68 H68        32.8747   22.8168   28.9875 H         1 UNK         0.0000 
     69 C69        33.4983   23.5186   26.9825 C.ar      1 UNK         0.0000 
     70 H70        33.6565   22.5082   26.6177 H         1 UNK         0.0000 
     71 C71        33.3871   24.6115   26.1319 C.ar      1 UNK         0.0000 
     72 H72        33.5523   24.4394   25.0721 H         1 UNK         0.0000 
     73 C73        33.0591   25.9000   26.5477 C.ar      1 UNK         0.0000 
     74 H74        32.9916   26.7730   25.9061 H         1 UNK         0.0000 
     75 C75        32.8422   26.0753   27.9021 C.ar      1 UNK         0.0000 
     76 H76        32.6076   27.0454   28.3313 H         1 UNK         0.0000 
     77 C77        28.1719   27.9180   37.7699 C.3       1 UNK         0.0000 
     78 H78        27.0872   27.7537   37.7735 H         1 UNK         0.0000 
     79 H79        28.4794   28.5252   36.9102 H         1 UNK         0.0000 
     80 H80        28.5646   28.3780   38.6848 H         1 UNK         0.0000 
     81 S81        28.8950   26.2688   37.6831 S.3       1 UNK         0.0000 
     82 C82        28.5603   25.6930   39.3886 C.3       1 UNK         0.0000 
     83 H83        28.6593   26.5406   40.0775 H         1 UNK         0.0000 
     84 H84        29.2348   24.9083   39.7534 H         1 UNK         0.0000 
     85 H85        27.5070   25.3945   39.4642 H         1 UNK         0.0000 
     86 O86        30.3648   26.4305   37.6858 O.2       1 UNK         0.0000 
     87 C87        29.1118   29.0515   30.3850 C.3       1 UNK         0.0000 
     88 H88        29.1615   28.4318   31.2887 H         1 UNK         0.0000 
     89 H89        29.4010   28.3325   29.6086 H         1 UNK         0.0000 
     90 H90        28.1163   29.4762   30.2080 H         1 UNK         0.0000 
     91 S91        30.3997   30.2889   30.7355 S.3       1 UNK         0.0000 
     92 C92        30.3383   31.1730   29.1190 C.3       1 UNK         0.0000 
     93 H93        29.6441   32.0187   29.2061 H         1 UNK         0.0000 
     94 H94        30.0497   30.5160   28.2897 H         1 UNK         0.0000 
     95 H95        31.3580   31.5456   28.9631 H         1 UNK         0.0000 
     96 O96        31.7071   29.5174   30.7507 O.2       1 UNK         0.0000 
@<TRIPOS>BOND
     1    1    5 1    
     2    1    3 1    
     3    1    2 1    
     4    1    4 1    
     5    5   14 1    
     6    5   10 1    
     7    5    6 1    
     8    6    9 1    
     9    6    7 1    
    10    6    8 1    
    11   10   12 1    
    12   10   13 1    
    13   10   11 1    
    14   14   15 1    
    15   15   17 am   BACKBONE|DICT|INTERRES
    16   15   16 2    
    17   17   18 1    
    18   17   19 1    
    19   19   24 1    
    20   19   25 1    
    21   19   20 1    
    22   20   23 2    
    23   20   21 am   BACKBONE|DICT|INTERRES
    24   21   22 1    
    25   21   58 1    
    26   25   27 1    
    27   25   26 1    
    28   25   28 1    
    29   28   33 ar   
    30   28   29 ar   
    31   29   30 ar   
    32   29   32 1    
    33   30   37 ar   
    34   30   31 1    
    35   33   34 1    
    36   33   35 ar   
    37   35   36 1    
    38   35   37 ar   
    39   37   38 1    
    40   38   39 1    
    41   39   40 ar   
    42   39   44 ar   
    43   40   43 1    
    44   40   41 ar   
    45   41   42 1    
    46   41   48 ar   
    47   44   45 1    
    48   44   46 ar   
    49   46   47 1    
    50   46   48 ar   
    51   48   49 1    
    52   49   51 1    
    53   49   50 2    
    54   51   54 1    
    55   51   52 1    
    56   51   53 1    
    57   54   56 am   BACKBONE|DICT|INTERRES
    58   54   55 1    
    59   56   58 1    
    60   56   57 2    
    61   58   59 1    
    62   58   60 1    
    63   60   61 1    
    64   60   62 1    
    65   60   63 1    
    66   63   65 1    
    67   63   64 1    
    68   63   66 1    
    69   66   67 ar   
    70   66   75 ar   
    71   67   68 1    
    72   67   69 ar   
    73   69   70 1    
    74   69   71 ar   
    75   71   73 ar   
    76   71   72 1    
    77   73   75 ar   
    78   73   74 1    
    79   75   76 1    
    80   77   78 1    
    81   77   80 1    
    82   77   79 1    
    83   77   81 1    
    84   81   82 1    
    85   81   86 2    
    86   82   85 1    
    87   82   84 1    
    88   82   83 1    
    89   87   91 1    
    90   87   88 1    
    91   87   89 1    
    92   87   90 1    
    93   91   96 2    
    94   91   92 1    
    95   92   93 1    
    96   92   94 1    
    97   92   95 1    
@<TRIPOS>SUBSTRUCTURE
     1 UNK         1 GROUP             0       ****    0 ROOT    
@<TRIPOS>MOLECULE
Cpd4-5000
96   97    1
SMALL
USER_CHARGES


@<TRIPOS>ATOM
      1 C1         27.5612   24.9573   32.3725 C.3       1 UNK         0.0000 
      2 H2         28.0804   25.5039   31.5749 H         1 UNK         0.0000 
      3 H3         26.9188   24.2660   31.8137 H         1 UNK         0.0000 
      4 H4         26.9260   25.6216   32.9695 H         1 UNK         0.0000 
      5 C5         28.4731   24.1296   33.3069 C.3       1 UNK         0.0000 
      6 C6         29.2443   23.1298   32.4715 C.3       1 UNK         0.0000 
      7 H7         29.9941   22.5491   33.0230 H         1 UNK         0.0000 
      8 H8         28.5913   22.3602   32.0412 H         1 UNK         0.0000 
      9 H9         29.7308   23.6730   31.6517 H         1 UNK         0.0000 
     10 C10        27.7331   23.3741   34.3358 C.3       1 UNK         0.0000 
     11 H11        27.1115   22.6630   33.7773 H         1 UNK         0.0000 
     12 H12        28.4810   22.8965   34.9803 H         1 UNK         0.0000 
     13 H13        27.0767   24.1033   34.8252 H         1 UNK         0.0000 
     14 O14        29.3819   24.8515   34.1135 O.3       1 UNK         0.0000 
     15 C15        30.2529   25.7781   33.5806 C.2       1 UNK         0.0000 
     16 O16        30.5157   25.7870   32.4377 O.2       1 UNK         0.0000 
     17 N17        30.6483   26.7912   34.4485 N.am      1 UNK         0.0000 
     18 H18        30.2269   26.7004   35.3655 H         1 UNK         0.0000 
     19 C19        31.5553   27.9823   34.2147 C.3       1 UNK         0.0000 
     20 C20        32.9656   27.5649   33.6371 C.2       1 UNK         0.0000 
     21 N21        33.1036   27.3871   32.2598 N.am      1 UNK         0.0000 
     22 H22        32.2424   27.4662   31.7328 H         1 UNK         0.0000 
     23 O23        33.9135   27.3040   34.3421 O.2       1 UNK         0.0000 
     24 H24        31.0566   28.5170   33.3973 H         1 UNK         0.0000 
     25 C25        31.6013   28.9043   35.4158 C.3       1 UNK         0.0000 
     26 H26        32.0019   28.3834   36.2940 H         1 UNK         0.0000 
     27 H27        30.5589   29.1657   35.6339 H         1 UNK         0.0000 
     28 C28        32.3522   30.1080   35.0840 C.ar      1 UNK         0.0000 
     29 C29        31.7253   30.9672   34.0901 C.ar      1 UNK         0.0000 
     30 C30        32.4838   32.0428   33.5659 C.ar      1 UNK         0.0000 
     31 H31        32.2412   32.6472   32.6968 H         1 UNK         0.0000 
     32 H32        30.7652   30.7192   33.6476 H         1 UNK         0.0000 
     33 C33        33.6784   30.3261   35.4854 C.ar      1 UNK         0.0000 
     34 H34        34.1755   29.6902   36.2114 H         1 UNK         0.0000 
     35 C35        34.3472   31.4057   34.9825 C.ar      1 UNK         0.0000 
     36 H36        35.3745   31.6392   35.2478 H         1 UNK         0.0000 
     37 C37        33.8140   32.2271   34.0320 C.ar      1 UNK         0.0000 
     38 O38        34.4999   33.2896   33.4811 O.3       1 UNK         0.0000 
     39 C39        34.8178   33.2125   32.1698 C.ar      1 UNK         0.0000 
     40 C40        35.7059   32.1391   31.8976 C.ar      1 UNK         0.0000 
     41 C41        35.3641   31.4292   30.7591 C.ar      1 UNK         0.0000 
     42 H42        35.9623   30.5473   30.5496 H         1 UNK         0.0000 
     43 H43        36.3969   31.7214   32.6238 H         1 UNK         0.0000 
     44 C44        33.9518   33.7724   31.2241 C.ar      1 UNK         0.0000 
     45 H45        33.3106   34.6135   31.4704 H         1 UNK         0.0000 
     46 C46        33.8358   33.1463   29.9619 C.ar      1 UNK         0.0000 
     47 H47        33.0703   33.4753   29.2648 H         1 UNK         0.0000 
     48 C48        34.4601   31.8653   29.7588 C.ar      1 UNK         0.0000 
     49 C49        34.0929   30.8708   28.7164 C.2       1 UNK         0.0000 
     50 O50        33.2782   31.1820   27.8157 O.2       1 UNK         0.0000 
     51 C51        34.6102   29.4385   28.7965 C.3       1 UNK         0.0000 
     52 H52        34.1865   28.7836   28.0260 H         1 UNK         0.0000 
     53 H53        35.6996   29.4331   28.6782 H         1 UNK         0.0000 
     54 N54        34.3095   28.7599   30.0664 N.am      1 UNK         0.0000 
     55 H55        33.4760   28.9696   30.6044 H         1 UNK         0.0000 
     56 C56        34.9790   27.6154   30.4621 C.2       1 UNK         0.0000 
     57 O57        35.9729   27.1638   29.8791 O.2       1 UNK         0.0000 
     58 C58        34.3625   26.8255   31.6839 C.3       1 UNK         0.0000 
     59 H59        35.1179   26.8852   32.4775 H         1 UNK         0.0000 
     60 C60        34.2255   25.3152   31.4448 C.3       1 UNK         0.0000 
     61 H61        34.9418   24.7872   30.8035 H         1 UNK         0.0000 
     62 H62        33.3094   25.1133   30.8757 H         1 UNK         0.0000 
     63 C63        34.1237   24.3663   32.7765 C.3       1 UNK         0.0000 
     64 H64        34.9178   24.5779   33.5025 H         1 UNK         0.0000 
     65 H65        33.1768   24.4954   33.3143 H         1 UNK         0.0000 
     66 C66        34.2595   22.8797   32.4215 C.ar      1 UNK         0.0000 
     67 C67        35.3873   22.1493   32.9513 C.ar      1 UNK         0.0000 
     68 H68        36.1153   22.7452   33.4940 H         1 UNK         0.0000 
     69 C69        35.5283   20.8267   32.7096 C.ar      1 UNK         0.0000 
     70 H70        36.3749   20.2720   33.1047 H         1 UNK         0.0000 
     71 C71        34.5037   20.1638   32.0089 C.ar      1 UNK         0.0000 
     72 H72        34.6204   19.1111   31.7667 H         1 UNK         0.0000 
     73 C73        33.3748   20.8718   31.4244 C.ar      1 UNK         0.0000 
     74 H74        32.6654   20.2625   30.8717 H         1 UNK         0.0000 
     75 C75        33.2634   22.2342   31.5999 C.ar      1 UNK         0.0000 
     76 H76        32.4354   22.7508   31.1234 H         1 UNK         0.0000 
     77 C77        29.7281   31.2147   30.5547 C.3       1 UNK         0.0000 
     78 H78        28.7510   31.4990   30.1448 H         1 UNK         0.0000 
     79 H79        30.4548   31.8840   30.0801 H         1 UNK         0.0000 
     80 H80        29.9268   31.3022   31.6298 H         1 UNK         0.0000 
     81 S81        30.1410   29.5223   30.1681 S.3       1 UNK         0.0000 
     82 C82        29.0075   28.8953   31.4615 C.3       1 UNK         0.0000 
     83 H83        29.2403   27.8321   31.6026 H         1 UNK         0.0000 
     84 H84        27.9604   29.0121   31.1576 H         1 UNK         0.0000 
     85 H85        29.2678   29.5077   32.3332 H         1 UNK         0.0000 
     86 O86        31.5314   29.4090   30.7677 O.2       1 UNK         0.0000 
     87 C87        29.7263   27.1042   39.7012 C.3       1 UNK         0.0000 
     88 H88        29.6562   26.0922   40.1189 H         1 UNK         0.0000 
     89 H89        29.1738   27.8632   40.2689 H         1 UNK         0.0000 
     90 H90        30.7586   27.3404   39.4189 H         1 UNK         0.0000 
     91 S91        28.8400   27.2014   38.1548 S.3       1 UNK         0.0000 
     92 C92        27.5992   26.0580   38.8557 C.3       1 UNK         0.0000 
     93 H93        28.0112   25.0509   38.7177 H         1 UNK         0.0000 
     94 H94        26.6404   26.2167   38.3450 H         1 UNK         0.0000 
     95 H95        27.5172   26.3050   39.9208 H         1 UNK         0.0000 
     96 O96        29.5801   26.3612   37.1990 O.2       1 UNK         0.0000 
@<TRIPOS>BOND
     1    1    4 1    
     2    1    5 1    
     3    1    2 1    
     4    1    3 1    
     5    5   14 1    
     6    5   10 1    
     7    5    6 1    
     8    6    7 1    
     9    6    8 1    
    10    6    9 1    
    11   10   12 1    
    12   10   13 1    
    13   10   11 1    
    14   14   15 1    
    15   15   17 am   BACKBONE|DICT|INTERRES
    16   15   16 2    
    17   17   18 1    
    18   17   19 1    
    19   19   24 1    
    20   19   25 1    
    21   19   20 1    
    22   20   23 2    
    23   20   21 am   BACKBONE|DICT|INTERRES
    24   21   22 1    
    25   21   58 1    
    26   25   27 1    
    27   25   26 1    
    28   25   28 1    
    29   28   33 ar   
    30   28   29 ar   
    31   29   30 ar   
    32   29   32 1    
    33   30   37 ar   
    34   30   31 1    
    35   33   34 1    
    36   33   35 ar   
    37   35   36 1    
    38   35   37 ar   
    39   37   38 1    
    40   38   39 1    
    41   39   40 ar   
    42   39   44 ar   
    43   40   43 1    
    44   40   41 ar   
    45   41   42 1    
    46   41   48 ar   
    47   44   45 1    
    48   44   46 ar   
    49   46   47 1    
    50   46   48 ar   
    51   48   49 1    
    52   49   50 2    
    53   49   51 1    
    54   51   54 1    
    55   51   52 1    
    56   51   53 1    
    57   54   56 am   BACKBONE|DICT|INTERRES
    58   54   55 1    
    59   56   58 1    
    60   56   57 2    
    61   58   59 1    
    62   58   60 1    
    63   60   63 1    
    64   60   61 1    
    65   60   62 1    
    66   63   65 1    
    67   63   64 1    
    68   63   66 1    
    69   66   67 ar   
    70   66   75 ar   
    71   67   68 1    
    72   67   69 ar   
    73   69   70 1    
    74   69   71 ar   
    75   71   72 1    
    76   71   73 ar   
    77   73   75 ar   
    78   73   74 1    
    79   75   76 1    
    80   77   80 1    
    81   77   78 1    
    82   77   79 1    
    83   77   81 1    
    84   81   86 2    
    85   81   82 1    
    86   82   85 1    
    87   82   83 1    
    88   82   84 1    
    89   87   88 1    
    90   87   89 1    
    91   87   90 1    
    92   87   91 1    
    93   91   92 1    
    94   91   96 2    
    95   92   95 1    
    96   92   93 1    
    97   92   94 1    
@<TRIPOS>SUBSTRUCTURE
     1 UNK         1 GROUP             0       ****    0 ROOT    
