@<TRIPOS>MOLECULE
Cpd4-500
76   79    1
SMALL
USER_CHARGES


@<TRIPOS>ATOM
      1 C           4.5958    4.1663    0.7179 C.3       1 ****        0.0000 
      2 H           3.6290    4.1852    1.2349 H         1 ****        0.0000 
      3 H           5.4034    4.3007    1.4480 H         1 ****        0.0000 
      4 H           4.5789    5.0103    0.0175 H         1 ****        0.0000 
      5 C           4.7519    2.8399   -0.0442 C.3       1 ****        0.0000 
      6 C           5.0703    1.6413    0.8907 C.3       1 ****        0.0000 
      7 H           4.3784    1.7047    1.7402 H         1 ****        0.0000 
      8 H           5.0675    0.6273    0.4744 H         1 ****        0.0000 
      9 H           6.0564    1.7911    1.3481 H         1 ****        0.0000 
     10 C           5.9564    2.8682   -1.0144 C.3       1 ****        0.0000 
     11 H           5.8751    3.8524   -1.4924 H         1 ****        0.0000 
     12 H           6.9288    2.7581   -0.5190 H         1 ****        0.0000 
     13 H           5.6806    2.2030   -1.8409 H         1 ****        0.0000 
     14 O           3.5404    2.6368   -0.7584 O.3       1 ****        0.0000 
     15 C           2.4267    2.2904   -0.0951 C.3       1 ****        0.0000 
     16 O           2.1292    2.2345    1.0578 O.3       1 ****        0.0000 
     17 N           1.5426    2.1948   -1.1275 N.3       1 ****        0.0000 
     18 H           1.9073    2.4858   -2.0265 H         1 ****        0.0000 
     19 C           0.0066    1.9408   -0.9863 C.3       1 ****        0.0000 
     20 C          -0.2182    0.3598   -0.7419 C.3       1 ****        0.0000 
     21 N           0.6342   -0.3059    0.0816 N.3       1 ****        0.0000 
     22 H           1.2976    0.2287    0.6293 H         1 ****        0.0000 
     23 O          -1.0255   -0.3181   -1.4415 O.3       1 ****        0.0000 
     24 H          -0.4770    2.4466   -0.1420 H         1 ****        0.0000 
     25 C          -0.6251    2.4115   -2.3281 C.3       1 ****        0.0000 
     26 H          -0.1760    1.8823   -3.1777 H         1 ****        0.0000 
     27 H          -0.3778    3.4545   -2.5589 H         1 ****        0.0000 
     28 C          -2.1809    2.2578   -2.3692 C.3       1 ****        0.0000 
     29 C          -2.9474    2.8047   -1.3414 C.3       1 ****        0.0000 
     30 C          -4.2234    2.2004   -1.0792 C.3       1 ****        0.0000 
     31 H          -4.7996    2.6351   -0.2676 H         1 ****        0.0000 
     32 H          -2.6150    3.5699   -0.6481 H         1 ****        0.0000 
     33 C          -2.6572    1.2524   -3.2736 C.3       1 ****        0.0000 
     34 H          -2.0726    0.9256   -4.1294 H         1 ****        0.0000 
     35 C          -4.0015    0.8349   -3.0615 C.3       1 ****        0.0000 
     36 H          -4.3804    0.0304   -3.6858 H         1 ****        0.0000 
     37 C          -4.7195    1.2602   -1.9467 C.3       1 ****        0.0000 
     38 O          -5.7600    0.5300   -1.4844 O.3       1 ****        0.0000 
     39 C          -5.3433   -0.3532   -0.4905 C.3       1 ****        0.0000 
     40 C          -4.7839   -1.5994   -0.7803 C.3       1 ****        0.0000 
     41 C          -4.1533   -2.3888    0.2173 C.3       1 ****        0.0000 
     42 H          -3.6737   -3.3329   -0.0269 H         1 ****        0.0000 
     43 H          -4.8283   -1.8752   -1.8308 H         1 ****        0.0000 
     44 C          -5.5297   -0.0304    0.8745 C.3       1 ****        0.0000 
     45 H          -6.1015    0.8589    1.1190 H         1 ****        0.0000 
     46 C          -4.8991   -0.7541    1.9287 C.3       1 ****        0.0000 
     47 H          -5.0227   -0.4141    2.9527 H         1 ****        0.0000 
     48 C          -4.1330   -1.9338    1.5558 C.3       1 ****        0.0000 
     49 C          -3.2167   -2.5145    2.6041 C.3       1 ****        0.0000 
     50 O          -3.3446   -2.2936    3.7969 O.3       1 ****        0.0000 
     51 C          -1.9014   -3.1981    2.1458 C.3       1 ****        0.0000 
     52 H          -1.5430   -3.7249    3.0381 H         1 ****        0.0000 
     53 H          -2.1389   -3.9461    1.3802 H         1 ****        0.0000 
     54 N          -1.0515   -2.3072    1.4571 N.3       1 ****        0.0000 
     55 H          -1.2004   -1.3066    1.5104 H         1 ****        0.0000 
     56 C           0.0112   -2.6981    0.6464 C.3       1 ****        0.0000 
     57 O           0.1245   -3.9252    0.4870 O.3       1 ****        0.0000 
     58 C           0.8635   -1.6602   -0.1134 C.3       1 ****        0.0000 
     59 H           0.7413   -1.9544   -1.1624 H         1 ****        0.0000 
     60 C           2.3812   -1.9168    0.3629 C.3       1 ****        0.0000 
     61 H           2.8570   -0.9888    0.0240 H         1 ****        0.0000 
     62 H           2.8802   -2.7903   -0.0760 H         1 ****        0.0000 
     63 C           2.5310   -2.2035    1.8850 C.3       1 ****        0.0000 
     64 H           1.9291   -1.5086    2.4850 H         1 ****        0.0000 
     65 H           2.1982   -3.2434    1.9877 H         1 ****        0.0000 
     66 C           4.0206   -2.0127    2.1897 C.3       1 ****        0.0000 
     67 C           4.4356   -1.0101    3.1181 C.3       1 ****        0.0000 
     68 H           3.7579   -0.4137    3.7226 H         1 ****        0.0000 
     69 C           5.7824   -0.9284    3.4236 C.3       1 ****        0.0000 
     70 H           6.2054   -0.2848    4.1900 H         1 ****        0.0000 
     71 C           6.6680   -1.8564    2.9206 C.3       1 ****        0.0000 
     72 H           7.6478   -1.9574    3.3788 H         1 ****        0.0000 
     73 C           6.2622   -2.7651    1.9244 C.3       1 ****        0.0000 
     74 H           6.9825   -3.4869    1.5513 H         1 ****        0.0000 
     75 C           4.9452   -2.9097    1.5607 C.3       1 ****        0.0000 
     76 H           4.6602   -3.6648    0.8345 H         1 ****        0.0000 
@<TRIPOS>BOND
     1    1    2 1    
     2    1    3 1    
     3    1    4 1    
     4    1    5 1    
     5    5    6 1    
     6    5   10 1    
     7    5   14 1    
     8    6    7 1    
     9    6    8 1    
    10    6    9 1    
    11   10   11 1    
    12   10   12 1    
    13   10   13 1    
    14   14   15 1    
    15   15   16 1    
    16   15   17 1    
    17   17   18 1    
    18   17   19 1    
    19   19   20 1    
    20   19   24 1    
    21   19   25 1    
    22   20   21 1    
    23   20   23 1    
    24   21   22 1    
    25   21   58 1    
    26   25   26 1    
    27   25   27 1    
    28   25   28 1    
    29   28   29 1    
    30   28   33 1    
    31   29   30 1    
    32   29   32 1    
    33   30   31 1    
    34   30   37 1    
    35   33   34 1    
    36   33   35 1    
    37   35   36 1    
    38   35   37 1    
    39   37   38 1    
    40   38   39 1    
    41   39   40 1    
    42   39   44 1    
    43   40   41 1    
    44   40   43 1    
    45   41   42 1    
    46   41   48 1    
    47   44   45 1    
    48   44   46 1    
    49   46   47 1    
    50   46   48 1    
    51   48   49 1    
    52   49   50 1    
    53   49   51 1    
    54   51   52 1    
    55   51   53 1    
    56   51   54 1    
    57   54   55 1    
    58   54   56 1    
    59   56   57 1    
    60   56   58 1    
    61   58   59 1    
    62   58   60 1    
    63   60   61 1    
    64   60   62 1    
    65   60   63 1    
    66   63   64 1    
    67   63   65 1    
    68   63   66 1    
    69   66   67 1    
    70   66   75 1    
    71   67   68 1    
    72   67   69 1    
    73   69   70 1    
    74   69   71 1    
    75   71   72 1    
    76   71   73 1    
    77   73   74 1    
    78   73   75 1    
    79   75   76 1    
@<TRIPOS>SUBSTRUCTURE
     1 ****        1 GROUP             0       ****    0 ROOT    
@<TRIPOS>MOLECULE
Cpd4-1000
76   79    1
SMALL
USER_CHARGES


@<TRIPOS>ATOM
      1 C           5.0559    4.6869   -2.0000 C.3       1 ****        0.0000 
      2 H           4.2281    5.2949   -1.6154 H         1 ****        0.0000 
      3 H           5.8298    5.3650   -1.6193 H         1 ****        0.0000 
      4 H           4.9192    4.8467   -3.0762 H         1 ****        0.0000 
      5 C           5.0660    3.2140   -1.6151 C.3       1 ****        0.0000 
      6 C           5.1199    3.2150   -0.1018 C.3       1 ****        0.0000 
      7 H           4.9426    4.2132    0.3156 H         1 ****        0.0000 
      8 H           4.4365    2.6185    0.5165 H         1 ****        0.0000 
      9 H           6.1219    2.9428    0.2526 H         1 ****        0.0000 
     10 C           6.2314    2.5510   -2.3301 C.3       1 ****        0.0000 
     11 H           7.2130    2.7254   -1.8722 H         1 ****        0.0000 
     12 H           5.9843    1.5007   -2.5288 H         1 ****        0.0000 
     13 H           6.1483    3.0387   -3.3096 H         1 ****        0.0000 
     14 O           3.8299    2.6594   -1.9930 O.3       1 ****        0.0000 
     15 C           2.6177    2.9687   -1.4802 C.3       1 ****        0.0000 
     16 O           2.3777    3.8584   -0.7073 O.3       1 ****        0.0000 
     17 N           1.7641    2.0053   -1.9248 N.3       1 ****        0.0000 
     18 H           2.1771    1.3775   -2.6042 H         1 ****        0.0000 
     19 C           0.3249    1.7725   -1.5806 C.3       1 ****        0.0000 
     20 C          -0.0188    0.2797   -1.4666 C.3       1 ****        0.0000 
     21 N          -0.0902   -0.2099   -0.1714 N.3       1 ****        0.0000 
     22 H          -0.2511    0.4181    0.6072 H         1 ****        0.0000 
     23 O           0.1054   -0.4761   -2.4195 O.3       1 ****        0.0000 
     24 H           0.3285    2.2199   -0.5794 H         1 ****        0.0000 
     25 C          -0.5553    2.5101   -2.5710 C.3       1 ****        0.0000 
     26 H          -0.3204    2.2691   -3.6160 H         1 ****        0.0000 
     27 H          -0.4162    3.5869   -2.4129 H         1 ****        0.0000 
     28 C          -2.0741    2.2555   -2.3726 C.3       1 ****        0.0000 
     29 C          -2.6998    2.6458   -1.1480 C.3       1 ****        0.0000 
     30 C          -3.9088    2.0994   -0.7503 C.3       1 ****        0.0000 
     31 H          -4.3288    2.1975    0.2465 H         1 ****        0.0000 
     32 H          -2.1058    3.1759   -0.4108 H         1 ****        0.0000 
     33 C          -2.8705    1.4252   -3.2569 C.3       1 ****        0.0000 
     34 H          -2.4498    1.0260   -4.1760 H         1 ****        0.0000 
     35 C          -4.1734    1.0096   -2.8992 C.3       1 ****        0.0000 
     36 H          -4.7569    0.3881   -3.5706 H         1 ****        0.0000 
     37 C          -4.7146    1.3057   -1.6445 C.3       1 ****        0.0000 
     38 O          -5.8645    0.7486   -1.1485 O.3       1 ****        0.0000 
     39 C          -5.4999   -0.3199   -0.3469 C.3       1 ****        0.0000 
     40 C          -4.7587   -1.3992   -0.7890 C.3       1 ****        0.0000 
     41 C          -4.1604   -2.2429    0.1137 C.3       1 ****        0.0000 
     42 H          -3.5020   -3.0751   -0.1164 H         1 ****        0.0000 
     43 H          -4.4574   -1.5346   -1.8231 H         1 ****        0.0000 
     44 C          -5.8024   -0.1561    1.0130 C.3       1 ****        0.0000 
     45 H          -6.4948    0.6142    1.3428 H         1 ****        0.0000 
     46 C          -5.1160   -0.9387    1.9376 C.3       1 ****        0.0000 
     47 H          -5.1955   -0.7129    2.9969 H         1 ****        0.0000 
     48 C          -4.2172   -1.9871    1.5104 C.3       1 ****        0.0000 
     49 C          -3.4033   -2.7175    2.5540 C.3       1 ****        0.0000 
     50 O          -3.8223   -2.8380    3.7198 O.3       1 ****        0.0000 
     51 C          -2.0275   -3.3416    2.0778 C.3       1 ****        0.0000 
     52 H          -1.3890   -3.6553    2.9127 H         1 ****        0.0000 
     53 H          -2.3444   -4.2616    1.5701 H         1 ****        0.0000 
     54 N          -1.2264   -2.4079    1.2276 N.3       1 ****        0.0000 
     55 H          -1.6807   -1.5826    0.8534 H         1 ****        0.0000 
     56 C           0.0854   -2.4946    0.9899 C.3       1 ****        0.0000 
     57 O           0.7092   -3.4563    1.3930 O.3       1 ****        0.0000 
     58 C           0.8033   -1.3508    0.2782 C.3       1 ****        0.0000 
     59 H           1.2795   -1.8856   -0.5515 H         1 ****        0.0000 
     60 C           2.0351   -0.8873    1.0562 C.3       1 ****        0.0000 
     61 H           2.6291   -0.1266    0.5360 H         1 ****        0.0000 
     62 H           2.6569   -1.7907    1.0357 H         1 ****        0.0000 
     63 C           1.7645   -0.3734    2.4739 C.3       1 ****        0.0000 
     64 H           1.3293   -1.1795    3.0775 H         1 ****        0.0000 
     65 H           2.6960   -0.0185    2.9337 H         1 ****        0.0000 
     66 C           0.8848    0.7907    2.4575 C.3       1 ****        0.0000 
     67 C          -0.4593    0.5965    2.7546 C.3       1 ****        0.0000 
     68 H          -0.6769   -0.3758    3.1846 H         1 ****        0.0000 
     69 C          -1.4265    1.6114    2.6165 C.3       1 ****        0.0000 
     70 H          -2.4823    1.3905    2.7399 H         1 ****        0.0000 
     71 C          -1.0024    2.8868    2.1220 C.3       1 ****        0.0000 
     72 H          -1.7765    3.6424    2.0301 H         1 ****        0.0000 
     73 C           0.4017    3.1722    1.9013 C.3       1 ****        0.0000 
     74 H           0.8113    4.0699    1.4477 H         1 ****        0.0000 
     75 C           1.2680    2.0890    2.0814 C.3       1 ****        0.0000 
     76 H           2.3197    2.3116    1.9211 H         1 ****        0.0000 
@<TRIPOS>BOND
     1    1    2 1    
     2    1    3 1    
     3    1    4 1    
     4    1    5 1    
     5    5    6 1    
     6    5   10 1    
     7    5   14 1    
     8    6    7 1    
     9    6    8 1    
    10    6    9 1    
    11   10   11 1    
    12   10   12 1    
    13   10   13 1    
    14   14   15 1    
    15   15   16 1    
    16   15   17 1    
    17   17   18 1    
    18   17   19 1    
    19   19   20 1    
    20   19   24 1    
    21   19   25 1    
    22   20   21 1    
    23   20   23 1    
    24   21   22 1    
    25   21   58 1    
    26   25   26 1    
    27   25   27 1    
    28   25   28 1    
    29   28   29 1    
    30   28   33 1    
    31   29   30 1    
    32   29   32 1    
    33   30   31 1    
    34   30   37 1    
    35   33   34 1    
    36   33   35 1    
    37   35   36 1    
    38   35   37 1    
    39   37   38 1    
    40   38   39 1    
    41   39   40 1    
    42   39   44 1    
    43   40   41 1    
    44   40   43 1    
    45   41   42 1    
    46   41   48 1    
    47   44   45 1    
    48   44   46 1    
    49   46   47 1    
    50   46   48 1    
    51   48   49 1    
    52   49   50 1    
    53   49   51 1    
    54   51   52 1    
    55   51   53 1    
    56   51   54 1    
    57   54   55 1    
    58   54   56 1    
    59   56   57 1    
    60   56   58 1    
    61   58   59 1    
    62   58   60 1    
    63   60   61 1    
    64   60   62 1    
    65   60   63 1    
    66   63   64 1    
    67   63   65 1    
    68   63   66 1    
    69   66   67 1    
    70   66   75 1    
    71   67   68 1    
    72   67   69 1    
    73   69   70 1    
    74   69   71 1    
    75   71   72 1    
    76   71   73 1    
    77   73   74 1    
    78   73   75 1    
    79   75   76 1    
@<TRIPOS>SUBSTRUCTURE
     1 ****        1 GROUP             0       ****    0 ROOT    
@<TRIPOS>MOLECULE
Cpd4-1500
76   79    1
SMALL
USER_CHARGES


@<TRIPOS>ATOM
      1 C           4.7459    4.1332   -0.4150 C.3       1 ****        0.0000 
      2 H           3.9181    3.9814    0.2866 H         1 ****        0.0000 
      3 H           5.7405    4.1743    0.0471 H         1 ****        0.0000 
      4 H           4.4929    5.1099   -0.8480 H         1 ****        0.0000 
      5 C           4.8955    3.2710   -1.6239 C.3       1 ****        0.0000 
      6 C           5.5507    1.9334   -1.3654 C.3       1 ****        0.0000 
      7 H           5.1378    1.5199   -0.4363 H         1 ****        0.0000 
      8 H           5.3209    1.1359   -2.0807 H         1 ****        0.0000 
      9 H           6.6335    2.0280   -1.2190 H         1 ****        0.0000 
     10 C           5.6295    3.9243   -2.7514 C.3       1 ****        0.0000 
     11 H           5.6428    3.3172   -3.6638 H         1 ****        0.0000 
     12 H           5.0920    4.8644   -2.9247 H         1 ****        0.0000 
     13 H           6.7243    3.9441   -2.6910 H         1 ****        0.0000 
     14 O           3.6493    2.9896   -2.2978 O.3       1 ****        0.0000 
     15 C           2.6750    2.3726   -1.6193 C.3       1 ****        0.0000 
     16 O           2.6235    1.9611   -0.4487 O.3       1 ****        0.0000 
     17 N           1.5887    2.1963   -2.4105 N.3       1 ****        0.0000 
     18 H           1.8075    2.3199   -3.3924 H         1 ****        0.0000 
     19 C           0.3034    1.6897   -2.0799 C.3       1 ****        0.0000 
     20 C           0.3227    0.1075   -1.9120 C.3       1 ****        0.0000 
     21 N           0.3078   -0.2274   -0.5546 N.3       1 ****        0.0000 
     22 H           0.6426    0.5399    0.0140 H         1 ****        0.0000 
     23 O           0.3021   -0.7339   -2.7753 O.3       1 ****        0.0000 
     24 H          -0.0819    2.1364   -1.1554 H         1 ****        0.0000 
     25 C          -0.6189    2.1100   -3.2740 C.3       1 ****        0.0000 
     26 H          -0.4717    1.4914   -4.1676 H         1 ****        0.0000 
     27 H          -0.5168    3.1730   -3.5237 H         1 ****        0.0000 
     28 C          -2.0555    2.0088   -2.8169 C.3       1 ****        0.0000 
     29 C          -2.6353    2.9606   -1.9984 C.3       1 ****        0.0000 
     30 C          -3.8357    2.7945   -1.2720 C.3       1 ****        0.0000 
     31 H          -4.2679    3.4867   -0.5552 H         1 ****        0.0000 
     32 H          -2.0806    3.8928   -1.9219 H         1 ****        0.0000 
     33 C          -2.7718    0.7597   -2.9219 C.3       1 ****        0.0000 
     34 H          -2.3326   -0.0029   -3.5585 H         1 ****        0.0000 
     35 C          -3.9219    0.5190   -2.1948 C.3       1 ****        0.0000 
     36 H          -4.3122   -0.4920   -2.1396 H         1 ****        0.0000 
     37 C          -4.4760    1.5207   -1.3889 C.3       1 ****        0.0000 
     38 O          -5.5236    1.1173   -0.5115 O.3       1 ****        0.0000 
     39 C          -5.2181    0.1420    0.4581 C.3       1 ****        0.0000 
     40 C          -5.6268   -1.1776    0.2390 C.3       1 ****        0.0000 
     41 C          -5.2086   -2.2450    1.0263 C.3       1 ****        0.0000 
     42 H          -5.4424   -3.2694    0.7514 H         1 ****        0.0000 
     43 H          -6.2033   -1.4151   -0.6506 H         1 ****        0.0000 
     44 C          -4.2750    0.4168    1.4503 C.3       1 ****        0.0000 
     45 H          -3.9070    1.4337    1.5519 H         1 ****        0.0000 
     46 C          -3.7800   -0.7194    2.1457 C.3       1 ****        0.0000 
     47 H          -2.9890   -0.5971    2.8789 H         1 ****        0.0000 
     48 C          -4.1730   -2.0505    1.8410 C.3       1 ****        0.0000 
     49 C          -3.4813   -3.2576    2.4501 C.3       1 ****        0.0000 
     50 O          -4.1036   -4.2825    2.6277 O.3       1 ****        0.0000 
     51 C          -2.0041   -3.2793    2.6229 C.3       1 ****        0.0000 
     52 H          -1.5534   -2.8583    3.5303 H         1 ****        0.0000 
     53 H          -1.6946   -4.3278    2.7043 H         1 ****        0.0000 
     54 N          -1.3186   -2.9017    1.3363 N.3       1 ****        0.0000 
     55 H          -1.3229   -3.5037    0.5224 H         1 ****        0.0000 
     56 C          -0.5395   -1.7364    1.2547 C.3       1 ****        0.0000 
     57 O          -0.5217   -0.9313    2.1267 O.3       1 ****        0.0000 
     58 C           0.2767   -1.6115   -0.0408 C.3       1 ****        0.0000 
     59 H          -0.1923   -2.2244   -0.8208 H         1 ****        0.0000 
     60 C           1.6392   -2.2356    0.2438 C.3       1 ****        0.0000 
     61 H           1.4953   -3.2942    0.4917 H         1 ****        0.0000 
     62 H           2.0121   -1.7425    1.1489 H         1 ****        0.0000 
     63 C           2.6641   -2.1297   -0.8826 C.3       1 ****        0.0000 
     64 H           2.3837   -2.5087   -1.8738 H         1 ****        0.0000 
     65 H           2.7198   -1.0706   -1.1613 H         1 ****        0.0000 
     66 C           3.9822   -2.6626   -0.4183 C.3       1 ****        0.0000 
     67 C           4.3630   -4.0475   -0.6479 C.3       1 ****        0.0000 
     68 H           3.7167   -4.7483   -1.1696 H         1 ****        0.0000 
     69 C           5.5456   -4.5401   -0.1711 C.3       1 ****        0.0000 
     70 H           5.6663   -5.6184   -0.1938 H         1 ****        0.0000 
     71 C           6.4147   -3.7408    0.6210 C.3       1 ****        0.0000 
     72 H           7.2871   -4.1816    1.0920 H         1 ****        0.0000 
     73 C           6.0622   -2.3840    0.9034 C.3       1 ****        0.0000 
     74 H           6.7321   -1.8294    1.5532 H         1 ****        0.0000 
     75 C           4.9221   -1.8241    0.2861 C.3       1 ****        0.0000 
     76 H           4.7340   -0.7582    0.3781 H         1 ****        0.0000 
@<TRIPOS>BOND
     1    1    2 1    
     2    1    3 1    
     3    1    4 1    
     4    1    5 1    
     5    5    6 1    
     6    5   10 1    
     7    5   14 1    
     8    6    7 1    
     9    6    8 1    
    10    6    9 1    
    11   10   11 1    
    12   10   12 1    
    13   10   13 1    
    14   14   15 1    
    15   15   16 1    
    16   15   17 1    
    17   17   18 1    
    18   17   19 1    
    19   19   20 1    
    20   19   24 1    
    21   19   25 1    
    22   20   21 1    
    23   20   23 1    
    24   21   22 1    
    25   21   58 1    
    26   25   26 1    
    27   25   27 1    
    28   25   28 1    
    29   28   29 1    
    30   28   33 1    
    31   29   30 1    
    32   29   32 1    
    33   30   31 1    
    34   30   37 1    
    35   33   34 1    
    36   33   35 1    
    37   35   36 1    
    38   35   37 1    
    39   37   38 1    
    40   38   39 1    
    41   39   40 1    
    42   39   44 1    
    43   40   41 1    
    44   40   43 1    
    45   41   42 1    
    46   41   48 1    
    47   44   45 1    
    48   44   46 1    
    49   46   47 1    
    50   46   48 1    
    51   48   49 1    
    52   49   50 1    
    53   49   51 1    
    54   51   52 1    
    55   51   53 1    
    56   51   54 1    
    57   54   55 1    
    58   54   56 1    
    59   56   57 1    
    60   56   58 1    
    61   58   59 1    
    62   58   60 1    
    63   60   61 1    
    64   60   62 1    
    65   60   63 1    
    66   63   64 1    
    67   63   65 1    
    68   63   66 1    
    69   66   67 1    
    70   66   75 1    
    71   67   68 1    
    72   67   69 1    
    73   69   70 1    
    74   69   71 1    
    75   71   72 1    
    76   71   73 1    
    77   73   74 1    
    78   73   75 1    
    79   75   76 1    
@<TRIPOS>SUBSTRUCTURE
     1 ****        1 GROUP             0       ****    0 ROOT    
@<TRIPOS>MOLECULE
Cpd4-2000
76   79    1
SMALL
USER_CHARGES


@<TRIPOS>ATOM
      1 C           5.3308    4.2126   -0.6733 C.3       1 ****        0.0000 
      2 H           6.1724    4.6081   -0.0893 H         1 ****        0.0000 
      3 H           5.6354    3.6474   -1.5608 H         1 ****        0.0000 
      4 H           4.8107    5.0938   -1.0696 H         1 ****        0.0000 
      5 C           4.4767    3.3838    0.1995 C.3       1 ****        0.0000 
      6 C           4.1922    4.1194    1.5408 C.3       1 ****        0.0000 
      7 H           3.6759    5.0542    1.2954 H         1 ****        0.0000 
      8 H           3.5887    3.5250    2.2382 H         1 ****        0.0000 
      9 H           5.1271    4.3872    2.0461 H         1 ****        0.0000 
     10 C           5.0270    1.9829    0.4806 C.3       1 ****        0.0000 
     11 H           4.8062    1.7139    1.5211 H         1 ****        0.0000 
     12 H           4.6339    1.2136   -0.1947 H         1 ****        0.0000 
     13 H           6.1101    1.9552    0.3141 H         1 ****        0.0000 
     14 O           3.3239    3.2129   -0.5739 O.3       1 ****        0.0000 
     15 C           2.3050    2.5395   -0.0629 C.3       1 ****        0.0000 
     16 O           2.1917    1.8389    0.9220 O.3       1 ****        0.0000 
     17 N           1.4737    2.4615   -1.0928 N.3       1 ****        0.0000 
     18 H           1.7557    3.1478   -1.7804 H         1 ****        0.0000 
     19 C           0.1265    1.8381   -1.0367 C.3       1 ****        0.0000 
     20 C           0.2772    0.3315   -1.1299 C.3       1 ****        0.0000 
     21 N           0.7215   -0.3851   -0.0448 N.3       1 ****        0.0000 
     22 H           1.0559    0.2502    0.6687 H         1 ****        0.0000 
     23 O          -0.0836   -0.2284   -2.1347 O.3       1 ****        0.0000 
     24 H          -0.3686    1.9903   -0.0715 H         1 ****        0.0000 
     25 C          -0.7781    2.4681   -2.1162 C.3       1 ****        0.0000 
     26 H          -0.3894    2.2316   -3.1139 H         1 ****        0.0000 
     27 H          -0.6496    3.5487   -1.9714 H         1 ****        0.0000 
     28 C          -2.2683    2.0521   -1.9827 C.3       1 ****        0.0000 
     29 C          -2.9648    2.4545   -0.8214 C.3       1 ****        0.0000 
     30 C          -4.2299    2.0136   -0.7270 C.3       1 ****        0.0000 
     31 H          -4.9052    2.4104    0.0247 H         1 ****        0.0000 
     32 H          -2.5122    3.0631   -0.0434 H         1 ****        0.0000 
     33 C          -2.8940    1.3813   -3.1100 C.3       1 ****        0.0000 
     34 H          -2.2805    1.1703   -3.9812 H         1 ****        0.0000 
     35 C          -4.2569    0.9919   -2.9879 C.3       1 ****        0.0000 
     36 H          -4.7342    0.4093   -3.7708 H         1 ****        0.0000 
     37 C          -4.9078    1.2741   -1.7743 C.3       1 ****        0.0000 
     38 O          -6.0447    0.6177   -1.4513 O.3       1 ****        0.0000 
     39 C          -5.7423   -0.2496   -0.3639 C.3       1 ****        0.0000 
     40 C          -4.9014   -1.3313   -0.6530 C.3       1 ****        0.0000 
     41 C          -4.1739   -2.0336    0.2789 C.3       1 ****        0.0000 
     42 H          -3.4091   -2.6748   -0.1495 H         1 ****        0.0000 
     43 H          -4.7285   -1.5110   -1.7105 H         1 ****        0.0000 
     44 C          -5.9460    0.0721    1.0050 C.3       1 ****        0.0000 
     45 H          -6.5040    0.9082    1.4166 H         1 ****        0.0000 
     46 C          -5.1786   -0.6347    1.9474 C.3       1 ****        0.0000 
     47 H          -5.2594   -0.2845    2.9722 H         1 ****        0.0000 
     48 C          -4.2862   -1.6582    1.6128 C.3       1 ****        0.0000 
     49 C          -3.3463   -2.2410    2.6319 C.3       1 ****        0.0000 
     50 O          -3.4253   -1.9039    3.7735 O.3       1 ****        0.0000 
     51 C          -2.0628   -3.0175    2.1760 C.3       1 ****        0.0000 
     52 H          -1.6938   -3.3222    3.1627 H         1 ****        0.0000 
     53 H          -2.3801   -3.8763    1.5720 H         1 ****        0.0000 
     54 N          -1.0021   -2.1732    1.5723 N.3       1 ****        0.0000 
     55 H          -1.0929   -1.1760    1.4197 H         1 ****        0.0000 
     56 C           0.0779   -2.7192    0.9037 C.3       1 ****        0.0000 
     57 O           0.2107   -3.9494    0.9944 O.3       1 ****        0.0000 
     58 C           0.8915   -1.8495   -0.0887 C.3       1 ****        0.0000 
     59 H           0.3912   -2.3210   -0.9428 H         1 ****        0.0000 
     60 C           2.3606   -2.3992   -0.2004 C.3       1 ****        0.0000 
     61 H           2.4601   -3.1713   -0.9715 H         1 ****        0.0000 
     62 H           2.7363   -2.8052    0.7466 H         1 ****        0.0000 
     63 C           3.2767   -1.2312   -0.4982 C.3       1 ****        0.0000 
     64 H           2.9466   -0.7420   -1.4228 H         1 ****        0.0000 
     65 H           3.2433   -0.4556    0.2758 H         1 ****        0.0000 
     66 C           4.7081   -1.5862   -0.8177 C.3       1 ****        0.0000 
     67 C           5.6638   -1.3297    0.1531 C.3       1 ****        0.0000 
     68 H           5.4247   -0.6541    0.9707 H         1 ****        0.0000 
     69 C           6.9902   -1.8271   -0.0049 C.3       1 ****        0.0000 
     70 H           7.6615   -1.6807    0.8366 H         1 ****        0.0000 
     71 C           7.3429   -2.5106   -1.1950 C.3       1 ****        0.0000 
     72 H           8.3753   -2.7350   -1.4478 H         1 ****        0.0000 
     73 C           6.3814   -2.6754   -2.1973 C.3       1 ****        0.0000 
     74 H           6.6789   -3.1532   -3.1266 H         1 ****        0.0000 
     75 C           5.0944   -2.2101   -1.9914 C.3       1 ****        0.0000 
     76 H           4.4409   -2.3789   -2.8424 H         1 ****        0.0000 
@<TRIPOS>BOND
     1    1    2 1    
     2    1    3 1    
     3    1    4 1    
     4    1    5 1    
     5    5    6 1    
     6    5   10 1    
     7    5   14 1    
     8    6    7 1    
     9    6    8 1    
    10    6    9 1    
    11   10   11 1    
    12   10   12 1    
    13   10   13 1    
    14   14   15 1    
    15   15   16 1    
    16   15   17 1    
    17   17   18 1    
    18   17   19 1    
    19   19   20 1    
    20   19   24 1    
    21   19   25 1    
    22   20   21 1    
    23   20   23 1    
    24   21   22 1    
    25   21   58 1    
    26   25   26 1    
    27   25   27 1    
    28   25   28 1    
    29   28   29 1    
    30   28   33 1    
    31   29   30 1    
    32   29   32 1    
    33   30   31 1    
    34   30   37 1    
    35   33   34 1    
    36   33   35 1    
    37   35   36 1    
    38   35   37 1    
    39   37   38 1    
    40   38   39 1    
    41   39   40 1    
    42   39   44 1    
    43   40   41 1    
    44   40   43 1    
    45   41   42 1    
    46   41   48 1    
    47   44   45 1    
    48   44   46 1    
    49   46   47 1    
    50   46   48 1    
    51   48   49 1    
    52   49   50 1    
    53   49   51 1    
    54   51   52 1    
    55   51   53 1    
    56   51   54 1    
    57   54   55 1    
    58   54   56 1    
    59   56   57 1    
    60   56   58 1    
    61   58   59 1    
    62   58   60 1    
    63   60   61 1    
    64   60   62 1    
    65   60   63 1    
    66   63   64 1    
    67   63   65 1    
    68   63   66 1    
    69   66   67 1    
    70   66   75 1    
    71   67   68 1    
    72   67   69 1    
    73   69   70 1    
    74   69   71 1    
    75   71   72 1    
    76   71   73 1    
    77   73   74 1    
    78   73   75 1    
    79   75   76 1    
@<TRIPOS>SUBSTRUCTURE
     1 ****        1 GROUP             0       ****    0 ROOT    
@<TRIPOS>MOLECULE
Cpd4-2500
76   79    1
SMALL
USER_CHARGES


@<TRIPOS>ATOM
      1 C           4.6345    4.9461   -1.8759 C.3       1 ****        0.0000 
      2 H           5.1381    5.8673   -1.5620 H         1 ****        0.0000 
      3 H           5.1988    4.0707   -1.5325 H         1 ****        0.0000 
      4 H           4.6288    4.8759   -2.9705 H         1 ****        0.0000 
      5 C           3.2225    4.9402   -1.2969 C.3       1 ****        0.0000 
      6 C           2.3017    5.9168   -1.9763 C.3       1 ****        0.0000 
      7 H           1.8115    5.4851   -2.8566 H         1 ****        0.0000 
      8 H           1.4093    6.1725   -1.3932 H         1 ****        0.0000 
      9 H           2.8126    6.8458   -2.2570 H         1 ****        0.0000 
     10 C           3.3171    5.0753    0.2160 C.3       1 ****        0.0000 
     11 H           4.2093    4.5288    0.5471 H         1 ****        0.0000 
     12 H           3.5733    6.1147    0.4543 H         1 ****        0.0000 
     13 H           2.4466    4.7631    0.8064 H         1 ****        0.0000 
     14 O           2.7947    3.5616   -1.5035 O.3       1 ****        0.0000 
     15 C           1.6319    3.2121   -0.9935 C.3       1 ****        0.0000 
     16 O           0.7664    3.8801   -0.4356 O.3       1 ****        0.0000 
     17 N           1.3844    1.9624   -1.4589 N.3       1 ****        0.0000 
     18 H           2.0837    1.5946   -2.0931 H         1 ****        0.0000 
     19 C          -0.0469    1.4327   -1.5292 C.3       1 ****        0.0000 
     20 C          -0.2035   -0.0785   -1.2033 C.3       1 ****        0.0000 
     21 N           0.8377   -0.6691   -0.5262 N.3       1 ****        0.0000 
     22 H           1.6324   -0.0902   -0.2818 H         1 ****        0.0000 
     23 O          -1.1141   -0.7660   -1.5004 O.3       1 ****        0.0000 
     24 H          -0.6873    1.8785   -0.7591 H         1 ****        0.0000 
     25 C          -0.6974    1.9348   -2.7754 C.3       1 ****        0.0000 
     26 H          -0.3891    1.3246   -3.6337 H         1 ****        0.0000 
     27 H          -0.3980    2.9784   -2.9327 H         1 ****        0.0000 
     28 C          -2.2224    1.9874   -2.5593 C.3       1 ****        0.0000 
     29 C          -2.7642    2.9278   -1.6428 C.3       1 ****        0.0000 
     30 C          -4.1023    2.8228   -1.1980 C.3       1 ****        0.0000 
     31 H          -4.4784    3.5060   -0.4438 H         1 ****        0.0000 
     32 H          -2.0835    3.6861   -1.2699 H         1 ****        0.0000 
     33 C          -2.9983    0.9565   -3.0793 C.3       1 ****        0.0000 
     34 H          -2.6159    0.3762   -3.9135 H         1 ****        0.0000 
     35 C          -4.2779    0.7413   -2.5103 C.3       1 ****        0.0000 
     36 H          -4.8700   -0.0616   -2.9401 H         1 ****        0.0000 
     37 C          -4.8154    1.6923   -1.5607 C.3       1 ****        0.0000 
     38 O          -5.8066    1.2727   -0.7601 O.3       1 ****        0.0000 
     39 C          -5.4765    0.3322    0.1499 C.3       1 ****        0.0000 
     40 C          -5.6318   -1.0187   -0.2242 C.3       1 ****        0.0000 
     41 C          -5.0061   -2.0379    0.5255 C.3       1 ****        0.0000 
     42 H          -5.0787   -3.0657    0.1819 H         1 ****        0.0000 
     43 H          -6.1542   -1.1888   -1.1615 H         1 ****        0.0000 
     44 C          -4.6754    0.6604    1.2226 C.3       1 ****        0.0000 
     45 H          -4.4321    1.7085    1.3716 H         1 ****        0.0000 
     46 C          -3.9897   -0.3232    1.9754 C.3       1 ****        0.0000 
     47 H          -3.2930    0.0184    2.7353 H         1 ****        0.0000 
     48 C          -4.1314   -1.7322    1.5931 C.3       1 ****        0.0000 
     49 C          -3.3165   -2.7749    2.2754 C.3       1 ****        0.0000 
     50 O          -3.6955   -3.8518    2.5750 O.3       1 ****        0.0000 
     51 C          -1.8181   -2.4048    2.4988 C.3       1 ****        0.0000 
     52 H          -1.6571   -1.5753    3.1972 H         1 ****        0.0000 
     53 H          -1.4410   -3.2687    3.0612 H         1 ****        0.0000 
     54 N          -1.0916   -2.2295    1.2225 N.3       1 ****        0.0000 
     55 H          -1.6515   -1.8229    0.4821 H         1 ****        0.0000 
     56 C           0.2394   -2.4739    1.1057 C.3       1 ****        0.0000 
     57 O           0.8543   -2.9604    2.0194 O.3       1 ****        0.0000 
     58 C           0.9971   -2.0729   -0.1688 C.3       1 ****        0.0000 
     59 H           0.6914   -2.8018   -0.9288 H         1 ****        0.0000 
     60 C           2.4779   -2.3394   -0.0533 C.3       1 ****        0.0000 
     61 H           2.5320   -3.3583    0.3511 H         1 ****        0.0000 
     62 H           3.0156   -1.6652    0.6254 H         1 ****        0.0000 
     63 C           3.2324   -2.2696   -1.4001 C.3       1 ****        0.0000 
     64 H           4.2130   -2.7582   -1.3466 H         1 ****        0.0000 
     65 H           2.6336   -2.7939   -2.1553 H         1 ****        0.0000 
     66 C           3.6006   -0.8138   -1.9125 C.3       1 ****        0.0000 
     67 C           3.1154   -0.3693   -3.1166 C.3       1 ****        0.0000 
     68 H           2.4041   -0.9865   -3.6576 H         1 ****        0.0000 
     69 C           3.6473    0.7338   -3.7526 C.3       1 ****        0.0000 
     70 H           3.2864    1.0697   -4.7206 H         1 ****        0.0000 
     71 C           4.7232    1.4422   -3.1531 C.3       1 ****        0.0000 
     72 H           5.2341    2.2223   -3.7087 H         1 ****        0.0000 
     73 C           5.2425    0.9686   -1.9216 C.3       1 ****        0.0000 
     74 H           6.0916    1.5308   -1.5415 H         1 ****        0.0000 
     75 C           4.7234   -0.1731   -1.3252 C.3       1 ****        0.0000 
     76 H           5.2196   -0.6629   -0.4931 H         1 ****        0.0000 
@<TRIPOS>BOND
     1    1    2 1    
     2    1    3 1    
     3    1    4 1    
     4    1    5 1    
     5    5    6 1    
     6    5   10 1    
     7    5   14 1    
     8    6    7 1    
     9    6    8 1    
    10    6    9 1    
    11   10   11 1    
    12   10   12 1    
    13   10   13 1    
    14   14   15 1    
    15   15   16 1    
    16   15   17 1    
    17   17   18 1    
    18   17   19 1    
    19   19   20 1    
    20   19   24 1    
    21   19   25 1    
    22   20   21 1    
    23   20   23 1    
    24   21   22 1    
    25   21   58 1    
    26   25   26 1    
    27   25   27 1    
    28   25   28 1    
    29   28   29 1    
    30   28   33 1    
    31   29   30 1    
    32   29   32 1    
    33   30   31 1    
    34   30   37 1    
    35   33   34 1    
    36   33   35 1    
    37   35   36 1    
    38   35   37 1    
    39   37   38 1    
    40   38   39 1    
    41   39   40 1    
    42   39   44 1    
    43   40   41 1    
    44   40   43 1    
    45   41   42 1    
    46   41   48 1    
    47   44   45 1    
    48   44   46 1    
    49   46   47 1    
    50   46   48 1    
    51   48   49 1    
    52   49   50 1    
    53   49   51 1    
    54   51   52 1    
    55   51   53 1    
    56   51   54 1    
    57   54   55 1    
    58   54   56 1    
    59   56   57 1    
    60   56   58 1    
    61   58   59 1    
    62   58   60 1    
    63   60   61 1    
    64   60   62 1    
    65   60   63 1    
    66   63   64 1    
    67   63   65 1    
    68   63   66 1    
    69   66   67 1    
    70   66   75 1    
    71   67   68 1    
    72   67   69 1    
    73   69   70 1    
    74   69   71 1    
    75   71   72 1    
    76   71   73 1    
    77   73   74 1    
    78   73   75 1    
    79   75   76 1    
@<TRIPOS>SUBSTRUCTURE
     1 ****        1 GROUP             0       ****    0 ROOT    
@<TRIPOS>MOLECULE
Cpd4-3000
76   79    1
SMALL
USER_CHARGES


@<TRIPOS>ATOM
      1 C           5.9143    2.9235   -2.1100 C.3       1 ****        0.0000 
      2 H           6.0051    2.2818   -2.9959 H         1 ****        0.0000 
      3 H           5.5721    3.9190   -2.4159 H         1 ****        0.0000 
      4 H           6.8679    3.1293   -1.6109 H         1 ****        0.0000 
      5 C           4.9023    2.3745   -1.1501 C.3       1 ****        0.0000 
      6 C           4.7243    3.3251    0.0718 C.3       1 ****        0.0000 
      7 H           5.6150    3.3758    0.7096 H         1 ****        0.0000 
      8 H           4.5979    4.3610   -0.2635 H         1 ****        0.0000 
      9 H           3.8723    3.0990    0.7254 H         1 ****        0.0000 
     10 C           5.3919    0.9882   -0.6948 C.3       1 ****        0.0000 
     11 H           4.9174    0.7810    0.2723 H         1 ****        0.0000 
     12 H           5.2739    0.2214   -1.4699 H         1 ****        0.0000 
     13 H           6.4789    1.1190   -0.6168 H         1 ****        0.0000 
     14 O           3.7403    2.3199   -1.9170 O.3       1 ****        0.0000 
     15 C           2.6738    1.7895   -1.3959 C.3       1 ****        0.0000 
     16 O           2.4128    1.3241   -0.3373 O.3       1 ****        0.0000 
     17 N           1.7128    2.0469   -2.3040 N.3       1 ****        0.0000 
     18 H           1.9604    2.7679   -2.9711 H         1 ****        0.0000 
     19 C           0.2794    1.6867   -2.1314 C.3       1 ****        0.0000 
     20 C           0.0229    0.2021   -1.9249 C.3       1 ****        0.0000 
     21 N           0.0676   -0.3501   -0.6060 N.3       1 ****        0.0000 
     22 H           0.2252    0.3625    0.0966 H         1 ****        0.0000 
     23 O          -0.1962   -0.5348   -2.8771 O.3       1 ****        0.0000 
     24 H           0.0090    2.1030   -1.1537 H         1 ****        0.0000 
     25 C          -0.6016    2.3477   -3.2545 C.3       1 ****        0.0000 
     26 H          -0.4016    1.9695   -4.2659 H         1 ****        0.0000 
     27 H          -0.3268    3.4069   -3.3224 H         1 ****        0.0000 
     28 C          -2.0227    2.1669   -2.7461 C.3       1 ****        0.0000 
     29 C          -2.4657    3.0415   -1.7472 C.3       1 ****        0.0000 
     30 C          -3.6522    2.7205   -1.1351 C.3       1 ****        0.0000 
     31 H          -3.9615    3.3158   -0.2818 H         1 ****        0.0000 
     32 H          -1.8011    3.8614   -1.4903 H         1 ****        0.0000 
     33 C          -2.7575    0.9897   -3.1007 C.3       1 ****        0.0000 
     34 H          -2.2545    0.3546   -3.8244 H         1 ****        0.0000 
     35 C          -3.8323    0.5568   -2.3707 C.3       1 ****        0.0000 
     36 H          -4.3519   -0.3805   -2.5522 H         1 ****        0.0000 
     37 C          -4.2876    1.4395   -1.3964 C.3       1 ****        0.0000 
     38 O          -5.3198    1.0706   -0.6272 O.3       1 ****        0.0000 
     39 C          -4.9596    0.0975    0.3281 C.3       1 ****        0.0000 
     40 C          -5.5579   -1.2107    0.2141 C.3       1 ****        0.0000 
     41 C          -5.2597   -2.3108    1.0799 C.3       1 ****        0.0000 
     42 H          -5.7598   -3.2723    1.0065 H         1 ****        0.0000 
     43 H          -6.3837   -1.3810   -0.4710 H         1 ****        0.0000 
     44 C          -4.0303    0.2898    1.3137 C.3       1 ****        0.0000 
     45 H          -3.6360    1.2901    1.4692 H         1 ****        0.0000 
     46 C          -3.7003   -0.7693    2.2385 C.3       1 ****        0.0000 
     47 H          -2.9034   -0.5702    2.9471 H         1 ****        0.0000 
     48 C          -4.2396   -2.0522    2.0543 C.3       1 ****        0.0000 
     49 C          -3.5162   -3.2859    2.6776 C.3       1 ****        0.0000 
     50 O          -4.1758   -4.2995    2.9071 O.3       1 ****        0.0000 
     51 C          -1.9354   -3.2468    2.7744 C.3       1 ****        0.0000 
     52 H          -1.6454   -2.5100    3.5325 H         1 ****        0.0000 
     53 H          -1.6264   -4.2535    3.0834 H         1 ****        0.0000 
     54 N          -1.3318   -2.9619    1.4323 N.3       1 ****        0.0000 
     55 H          -1.5310   -3.5722    0.6479 H         1 ****        0.0000 
     56 C          -0.6135   -1.8039    1.1658 C.3       1 ****        0.0000 
     57 O          -0.4307   -0.9526    1.9612 O.3       1 ****        0.0000 
     58 C           0.0527   -1.7306   -0.2282 C.3       1 ****        0.0000 
     59 H          -0.4504   -2.4504   -0.8854 H         1 ****        0.0000 
     60 C           1.5923   -2.1470   -0.0107 C.3       1 ****        0.0000 
     61 H           2.2068   -1.4131    0.5250 H         1 ****        0.0000 
     62 H           2.1154   -2.2066   -0.9727 H         1 ****        0.0000 
     63 C           1.7872   -3.5690    0.6261 C.3       1 ****        0.0000 
     64 H           2.8170   -3.8850    0.8364 H         1 ****        0.0000 
     65 H           1.3362   -3.5888    1.6260 H         1 ****        0.0000 
     66 C           1.1580   -4.6892   -0.2727 C.3       1 ****        0.0000 
     67 C           1.3031   -4.7962   -1.6167 C.3       1 ****        0.0000 
     68 H           1.8767   -4.0529   -2.1622 H         1 ****        0.0000 
     69 C           0.7136   -5.8728   -2.3165 C.3       1 ****        0.0000 
     70 H           0.7103   -5.7521   -3.3956 H         1 ****        0.0000 
     71 C          -0.0313   -6.8035   -1.6198 C.3       1 ****        0.0000 
     72 H          -0.6923   -7.4726   -2.1627 H         1 ****        0.0000 
     73 C          -0.0132   -6.8184   -0.1736 C.3       1 ****        0.0000 
     74 H          -0.6800   -7.4842    0.3673 H         1 ****        0.0000 
     75 C           0.6245   -5.7199    0.4545 C.3       1 ****        0.0000 
     76 H           0.5556   -5.6120    1.5327 H         1 ****        0.0000 
@<TRIPOS>BOND
     1    1    2 1    
     2    1    3 1    
     3    1    4 1    
     4    1    5 1    
     5    5    6 1    
     6    5   10 1    
     7    5   14 1    
     8    6    7 1    
     9    6    8 1    
    10    6    9 1    
    11   10   11 1    
    12   10   12 1    
    13   10   13 1    
    14   14   15 1    
    15   15   16 1    
    16   15   17 1    
    17   17   18 1    
    18   17   19 1    
    19   19   20 1    
    20   19   24 1    
    21   19   25 1    
    22   20   21 1    
    23   20   23 1    
    24   21   22 1    
    25   21   58 1    
    26   25   26 1    
    27   25   27 1    
    28   25   28 1    
    29   28   29 1    
    30   28   33 1    
    31   29   30 1    
    32   29   32 1    
    33   30   31 1    
    34   30   37 1    
    35   33   34 1    
    36   33   35 1    
    37   35   36 1    
    38   35   37 1    
    39   37   38 1    
    40   38   39 1    
    41   39   40 1    
    42   39   44 1    
    43   40   41 1    
    44   40   43 1    
    45   41   42 1    
    46   41   48 1    
    47   44   45 1    
    48   44   46 1    
    49   46   47 1    
    50   46   48 1    
    51   48   49 1    
    52   49   50 1    
    53   49   51 1    
    54   51   52 1    
    55   51   53 1    
    56   51   54 1    
    57   54   55 1    
    58   54   56 1    
    59   56   57 1    
    60   56   58 1    
    61   58   59 1    
    62   58   60 1    
    63   60   61 1    
    64   60   62 1    
    65   60   63 1    
    66   63   64 1    
    67   63   65 1    
    68   63   66 1    
    69   66   67 1    
    70   66   75 1    
    71   67   68 1    
    72   67   69 1    
    73   69   70 1    
    74   69   71 1    
    75   71   72 1    
    76   71   73 1    
    77   73   74 1    
    78   73   75 1    
    79   75   76 1    
@<TRIPOS>SUBSTRUCTURE
     1 ****        1 GROUP             0       ****    0 ROOT    
@<TRIPOS>MOLECULE
Cpd4-3500
76   79    1
SMALL
USER_CHARGES


@<TRIPOS>ATOM
      1 C           3.7908    5.0236    2.3598 C.3       1 ****        0.0000 
      2 H           4.5099    4.7500    1.5788 H         1 ****        0.0000 
      3 H           3.4387    6.0258    2.0852 H         1 ****        0.0000 
      4 H           4.3897    5.0991    3.2761 H         1 ****        0.0000 
      5 C           2.7079    3.9681    2.5609 C.3       1 ****        0.0000 
      6 C           1.4499    4.6158    3.1449 C.3       1 ****        0.0000 
      7 H           1.0010    5.1456    2.2953 H         1 ****        0.0000 
      8 H           0.8474    3.8079    3.5785 H         1 ****        0.0000 
      9 H           1.6807    5.2989    3.9719 H         1 ****        0.0000 
     10 C           3.4035    2.8508    3.4046 C.3       1 ****        0.0000 
     11 H           3.8215    3.2616    4.3319 H         1 ****        0.0000 
     12 H           2.7819    1.9743    3.6234 H         1 ****        0.0000 
     13 H           4.2585    2.5005    2.8157 H         1 ****        0.0000 
     14 O           2.3208    3.5460    1.2054 O.3       1 ****        0.0000 
     15 C           1.2783    2.6011    1.0923 C.3       1 ****        0.0000 
     16 O           0.8239    1.8795    1.9955 O.3       1 ****        0.0000 
     17 N           0.9561    2.5709   -0.2108 N.3       1 ****        0.0000 
     18 H           1.4931    3.2770   -0.7003 H         1 ****        0.0000 
     19 C          -0.1876    1.8612   -0.7284 C.3       1 ****        0.0000 
     20 C           0.0180    0.3004   -0.7588 C.3       1 ****        0.0000 
     21 N           0.8554   -0.3809    0.1456 N.3       1 ****        0.0000 
     22 H           1.2815    0.1427    0.9010 H         1 ****        0.0000 
     23 O          -0.3698   -0.4029   -1.6642 O.3       1 ****        0.0000 
     24 H          -0.9413    2.0139    0.0540 H         1 ****        0.0000 
     25 C          -0.7441    2.5525   -2.0543 C.3       1 ****        0.0000 
     26 H          -0.1822    2.3218   -2.9674 H         1 ****        0.0000 
     27 H          -0.6705    3.6379   -1.9131 H         1 ****        0.0000 
     28 C          -2.2375    2.1402   -2.1521 C.3       1 ****        0.0000 
     29 C          -3.1396    2.7169   -1.3369 C.3       1 ****        0.0000 
     30 C          -4.4283    2.2538   -1.1811 C.3       1 ****        0.0000 
     31 H          -5.2074    2.6792   -0.5544 H         1 ****        0.0000 
     32 H          -2.8583    3.5958   -0.7641 H         1 ****        0.0000 
     33 C          -2.7336    1.2029   -3.0642 C.3       1 ****        0.0000 
     34 H          -2.0316    0.7465   -3.7561 H         1 ****        0.0000 
     35 C          -4.0820    0.6987   -3.0032 C.3       1 ****        0.0000 
     36 H          -4.3484   -0.1842   -3.5744 H         1 ****        0.0000 
     37 C          -4.9001    1.2246   -2.0029 C.3       1 ****        0.0000 
     38 O          -5.8772    0.4562   -1.4533 O.3       1 ****        0.0000 
     39 C          -5.4860   -0.3821   -0.5094 C.3       1 ****        0.0000 
     40 C          -4.7941   -1.5890   -0.8063 C.3       1 ****        0.0000 
     41 C          -4.0153   -2.1125    0.1957 C.3       1 ****        0.0000 
     42 H          -3.2822   -2.8843   -0.0190 H         1 ****        0.0000 
     43 H          -4.7274   -2.0051   -1.8075 H         1 ****        0.0000 
     44 C          -5.6911    0.0400    0.8702 C.3       1 ****        0.0000 
     45 H          -6.2929    0.8943    1.1673 H         1 ****        0.0000 
     46 C          -4.9488   -0.6317    1.9215 C.3       1 ****        0.0000 
     47 H          -5.0296   -0.3015    2.9533 H         1 ****        0.0000 
     48 C          -4.0974   -1.6641    1.4841 C.3       1 ****        0.0000 
     49 C          -3.0928   -2.2312    2.5490 C.3       1 ****        0.0000 
     50 O          -3.3715   -2.1373    3.7239 O.3       1 ****        0.0000 
     51 C          -1.8830   -3.0701    2.0994 C.3       1 ****        0.0000 
     52 H          -1.3521   -3.3941    3.0030 H         1 ****        0.0000 
     53 H          -2.3110   -3.8939    1.5158 H         1 ****        0.0000 
     54 N          -0.8032   -2.3286    1.5380 N.3       1 ****        0.0000 
     55 H          -0.6733   -1.3547    1.7828 H         1 ****        0.0000 
     56 C          -0.0127   -2.8620    0.5499 C.3       1 ****        0.0000 
     57 O          -0.0890   -4.0357    0.1770 O.3       1 ****        0.0000 
     58 C           1.1176   -1.8885    0.0135 C.3       1 ****        0.0000 
     59 H           1.0999   -2.1862   -1.0417 H         1 ****        0.0000 
     60 C           2.5068   -2.2107    0.6912 C.3       1 ****        0.0000 
     61 H           2.7469   -3.2773    0.6047 H         1 ****        0.0000 
     62 H           2.5441   -1.8270    1.7181 H         1 ****        0.0000 
     63 C           3.6939   -1.4750   -0.0514 C.3       1 ****        0.0000 
     64 H           3.8206   -1.9251   -1.0444 H         1 ****        0.0000 
     65 H           3.5575   -0.3973   -0.2050 H         1 ****        0.0000 
     66 C           4.9501   -1.6531    0.7790 C.3       1 ****        0.0000 
     67 C           5.9183   -2.6312    0.4729 C.3       1 ****        0.0000 
     68 H           5.7512   -3.3804   -0.2957 H         1 ****        0.0000 
     69 C           7.1126   -2.7627    1.1719 C.3       1 ****        0.0000 
     70 H           7.7605   -3.6055    0.9500 H         1 ****        0.0000 
     71 C           7.4601   -1.7419    2.0552 C.3       1 ****        0.0000 
     72 H           8.4624   -1.7286    2.4755 H         1 ****        0.0000 
     73 C           6.4718   -0.7464    2.3148 C.3       1 ****        0.0000 
     74 H           6.6735    0.0323    3.0452 H         1 ****        0.0000 
     75 C           5.2562   -0.7771    1.8058 C.3       1 ****        0.0000 
     76 H           4.4787   -0.0458    2.0044 H         1 ****        0.0000 
@<TRIPOS>BOND
     1    1    2 1    
     2    1    3 1    
     3    1    4 1    
     4    1    5 1    
     5    5    6 1    
     6    5   10 1    
     7    5   14 1    
     8    6    7 1    
     9    6    8 1    
    10    6    9 1    
    11   10   11 1    
    12   10   12 1    
    13   10   13 1    
    14   14   15 1    
    15   15   16 1    
    16   15   17 1    
    17   17   18 1    
    18   17   19 1    
    19   19   20 1    
    20   19   24 1    
    21   19   25 1    
    22   20   21 1    
    23   20   23 1    
    24   21   22 1    
    25   21   58 1    
    26   25   26 1    
    27   25   27 1    
    28   25   28 1    
    29   28   29 1    
    30   28   33 1    
    31   29   30 1    
    32   29   32 1    
    33   30   31 1    
    34   30   37 1    
    35   33   34 1    
    36   33   35 1    
    37   35   36 1    
    38   35   37 1    
    39   37   38 1    
    40   38   39 1    
    41   39   40 1    
    42   39   44 1    
    43   40   41 1    
    44   40   43 1    
    45   41   42 1    
    46   41   48 1    
    47   44   45 1    
    48   44   46 1    
    49   46   47 1    
    50   46   48 1    
    51   48   49 1    
    52   49   50 1    
    53   49   51 1    
    54   51   52 1    
    55   51   53 1    
    56   51   54 1    
    57   54   55 1    
    58   54   56 1    
    59   56   57 1    
    60   56   58 1    
    61   58   59 1    
    62   58   60 1    
    63   60   61 1    
    64   60   62 1    
    65   60   63 1    
    66   63   64 1    
    67   63   65 1    
    68   63   66 1    
    69   66   67 1    
    70   66   75 1    
    71   67   68 1    
    72   67   69 1    
    73   69   70 1    
    74   69   71 1    
    75   71   72 1    
    76   71   73 1    
    77   73   74 1    
    78   73   75 1    
    79   75   76 1    
@<TRIPOS>SUBSTRUCTURE
     1 ****        1 GROUP             0       ****    0 ROOT    
@<TRIPOS>MOLECULE
Cpd4-4000
76   79    1
SMALL
USER_CHARGES


@<TRIPOS>ATOM
      1 C           2.6461    6.1069   -0.2086 C.3       1 ****        0.0000 
      2 H           2.3923    5.8408   -1.2423 H         1 ****        0.0000 
      3 H           1.7120    6.2336    0.3542 H         1 ****        0.0000 
      4 H           3.2362    7.0306   -0.1894 H         1 ****        0.0000 
      5 C           3.3904    4.8960    0.3326 C.3       1 ****        0.0000 
      6 C           3.5509    4.7506    1.8431 C.3       1 ****        0.0000 
      7 H           2.5651    4.7940    2.3219 H         1 ****        0.0000 
      8 H           3.9121    3.7427    2.0790 H         1 ****        0.0000 
      9 H           4.1699    5.5801    2.2072 H         1 ****        0.0000 
     10 C           4.7695    4.9262   -0.3695 C.3       1 ****        0.0000 
     11 H           4.5921    5.2511   -1.4027 H         1 ****        0.0000 
     12 H           5.3604    5.6810    0.1636 H         1 ****        0.0000 
     13 H           5.4204    4.0455   -0.3055 H         1 ****        0.0000 
     14 O           2.8695    3.5906   -0.0112 O.3       1 ****        0.0000 
     15 C           1.5570    3.2864    0.2481 C.3       1 ****        0.0000 
     16 O           0.6953    3.9880    0.7630 O.3       1 ****        0.0000 
     17 N           1.2711    2.2348   -0.4952 N.3       1 ****        0.0000 
     18 H           2.1440    1.8710   -0.8599 H         1 ****        0.0000 
     19 C          -0.1069    1.7945   -0.8833 C.3       1 ****        0.0000 
     20 C          -0.2110    0.2596   -1.0802 C.3       1 ****        0.0000 
     21 N           0.2986   -0.4472   -0.0796 N.3       1 ****        0.0000 
     22 H           0.6098    0.1335    0.6906 H         1 ****        0.0000 
     23 O          -0.4293   -0.3889   -2.0738 O.3       1 ****        0.0000 
     24 H          -0.7483    2.0054   -0.0189 H         1 ****        0.0000 
     25 C          -0.7025    2.6116   -2.0462 C.3       1 ****        0.0000 
     26 H          -0.2146    2.3079   -2.9802 H         1 ****        0.0000 
     27 H          -0.4698    3.6670   -1.8548 H         1 ****        0.0000 
     28 C          -2.1803    2.2585   -2.1353 C.3       1 ****        0.0000 
     29 C          -2.9914    2.7515   -1.1273 C.3       1 ****        0.0000 
     30 C          -4.2812    2.2500   -1.0390 C.3       1 ****        0.0000 
     31 H          -4.8145    2.5365   -0.1375 H         1 ****        0.0000 
     32 H          -2.5565    3.3605   -0.3397 H         1 ****        0.0000 
     33 C          -2.6600    1.5860   -3.2454 C.3       1 ****        0.0000 
     34 H          -2.0647    1.4857   -4.1478 H         1 ****        0.0000 
     35 C          -3.9334    0.9657   -3.1090 C.3       1 ****        0.0000 
     36 H          -4.2808    0.2116   -3.8077 H         1 ****        0.0000 
     37 C          -4.6434    1.2596   -1.9130 C.3       1 ****        0.0000 
     38 O          -5.7197    0.4411   -1.5104 O.3       1 ****        0.0000 
     39 C          -5.5301   -0.4168   -0.4933 C.3       1 ****        0.0000 
     40 C          -4.8135   -1.6165   -0.6900 C.3       1 ****        0.0000 
     41 C          -4.1513   -2.3391    0.3205 C.3       1 ****        0.0000 
     42 H          -3.4871   -3.1537    0.0461 H         1 ****        0.0000 
     43 H          -4.6087   -1.9950   -1.6870 H         1 ****        0.0000 
     44 C          -5.6654   -0.0947    0.8342 C.3       1 ****        0.0000 
     45 H          -6.2306    0.8131    1.0219 H         1 ****        0.0000 
     46 C          -4.9442   -0.7428    1.8946 C.3       1 ****        0.0000 
     47 H          -5.0640   -0.3703    2.9077 H         1 ****        0.0000 
     48 C          -4.1485   -1.8675    1.6240 C.3       1 ****        0.0000 
     49 C          -3.2245   -2.4741    2.6547 C.3       1 ****        0.0000 
     50 O          -3.4135   -2.1509    3.8268 O.3       1 ****        0.0000 
     51 C          -1.9181   -3.1508    2.1564 C.3       1 ****        0.0000 
     52 H          -1.3397   -3.4482    3.0398 H         1 ****        0.0000 
     53 H          -2.1557   -4.1041    1.6661 H         1 ****        0.0000 
     54 N          -1.0357   -2.2694    1.3759 N.3       1 ****        0.0000 
     55 H          -1.1783   -1.2670    1.4003 H         1 ****        0.0000 
     56 C           0.0412   -2.7868    0.7544 C.3       1 ****        0.0000 
     57 O           0.4548   -3.9148    0.8929 O.3       1 ****        0.0000 
     58 C           0.8367   -1.8953   -0.2143 C.3       1 ****        0.0000 
     59 H           0.7933   -2.2995   -1.2334 H         1 ****        0.0000 
     60 C           2.3241   -1.9323    0.0481 C.3       1 ****        0.0000 
     61 H           2.5771   -2.8967    0.5050 H         1 ****        0.0000 
     62 H           2.5333   -1.1226    0.7602 H         1 ****        0.0000 
     63 C           3.2067   -1.9241   -1.2242 C.3       1 ****        0.0000 
     64 H           4.2631   -2.0747   -0.9724 H         1 ****        0.0000 
     65 H           2.9200   -2.7519   -1.8839 H         1 ****        0.0000 
     66 C           3.0832   -0.5964   -2.0464 C.3       1 ****        0.0000 
     67 C           3.8426    0.5454   -1.7648 C.3       1 ****        0.0000 
     68 H           4.5471    0.5057   -0.9396 H         1 ****        0.0000 
     69 C           3.6561    1.7411   -2.4421 C.3       1 ****        0.0000 
     70 H           4.2079    2.6465   -2.2077 H         1 ****        0.0000 
     71 C           2.8106    1.7395   -3.6195 C.3       1 ****        0.0000 
     72 H           2.8632    2.5225   -4.3685 H         1 ****        0.0000 
     73 C           2.0080    0.6165   -3.8740 C.3       1 ****        0.0000 
     74 H           1.3718    0.5532   -4.7519 H         1 ****        0.0000 
     75 C           2.2470   -0.5532   -3.1242 C.3       1 ****        0.0000 
     76 H           1.6202   -1.4179   -3.3170 H         1 ****        0.0000 
@<TRIPOS>BOND
     1    1    2 1    
     2    1    3 1    
     3    1    4 1    
     4    1    5 1    
     5    5    6 1    
     6    5   10 1    
     7    5   14 1    
     8    6    7 1    
     9    6    8 1    
    10    6    9 1    
    11   10   11 1    
    12   10   12 1    
    13   10   13 1    
    14   14   15 1    
    15   15   16 1    
    16   15   17 1    
    17   17   18 1    
    18   17   19 1    
    19   19   20 1    
    20   19   24 1    
    21   19   25 1    
    22   20   21 1    
    23   20   23 1    
    24   21   22 1    
    25   21   58 1    
    26   25   26 1    
    27   25   27 1    
    28   25   28 1    
    29   28   29 1    
    30   28   33 1    
    31   29   30 1    
    32   29   32 1    
    33   30   31 1    
    34   30   37 1    
    35   33   34 1    
    36   33   35 1    
    37   35   36 1    
    38   35   37 1    
    39   37   38 1    
    40   38   39 1    
    41   39   40 1    
    42   39   44 1    
    43   40   41 1    
    44   40   43 1    
    45   41   42 1    
    46   41   48 1    
    47   44   45 1    
    48   44   46 1    
    49   46   47 1    
    50   46   48 1    
    51   48   49 1    
    52   49   50 1    
    53   49   51 1    
    54   51   52 1    
    55   51   53 1    
    56   51   54 1    
    57   54   55 1    
    58   54   56 1    
    59   56   57 1    
    60   56   58 1    
    61   58   59 1    
    62   58   60 1    
    63   60   61 1    
    64   60   62 1    
    65   60   63 1    
    66   63   64 1    
    67   63   65 1    
    68   63   66 1    
    69   66   67 1    
    70   66   75 1    
    71   67   68 1    
    72   67   69 1    
    73   69   70 1    
    74   69   71 1    
    75   71   72 1    
    76   71   73 1    
    77   73   74 1    
    78   73   75 1    
    79   75   76 1    
@<TRIPOS>SUBSTRUCTURE
     1 ****        1 GROUP             0       ****    0 ROOT    
@<TRIPOS>MOLECULE
Cpd4-4500_MEC-MRC
76   79    1
SMALL
USER_CHARGES


@<TRIPOS>ATOM
      1 C           2.5730    3.7070    3.3380 C.3       1 ****        0.0000 
      2 H           3.1900    4.2630    4.0550 H         1 ****        0.0000 
      3 H           1.6650    4.2960    3.1610 H         1 ****        0.0000 
      4 H           2.3670    2.7710    3.8700 H         1 ****        0.0000 
      5 C           3.3320    3.4640    1.9810 C.3       1 ****        0.0000 
      6 C           4.1070    2.1890    2.1680 C.3       1 ****        0.0000 
      7 H           4.3340    1.7520    1.1870 H         1 ****        0.0000 
      8 H           5.0800    2.2860    2.6650 H         1 ****        0.0000 
      9 H           3.5530    1.4750    2.7890 H         1 ****        0.0000 
     10 C           4.2220    4.6380    1.6210 C.3       1 ****        0.0000 
     11 H           4.8170    4.2900    0.7670 H         1 ****        0.0000 
     12 H           3.6320    5.4840    1.2470 H         1 ****        0.0000 
     13 H           4.9180    5.0200    2.3790 H         1 ****        0.0000 
     14 O           2.4720    3.3600    0.8580 O.3       1 ****        0.0000 
     15 C           1.4160    2.5470    0.9150 C.3       1 ****        0.0000 
     16 O           1.0800    1.7890    1.8160 O.3       1 ****        0.0000 
     17 N           0.8960    2.6650   -0.3070 N.3       1 ****        0.0000 
     18 H           1.1890    3.5420   -0.7220 H         1 ****        0.0000 
     19 C          -0.2190    1.8830   -0.8650 C.3       1 ****        0.0000 
     20 C          -0.0610    0.3690   -1.1110 C.3       1 ****        0.0000 
     21 N           0.3050   -0.3880   -0.0000 N.3       1 ****        0.0000 
     22 H           0.6540    0.0640    0.8360 H         1 ****        0.0000 
     23 O          -0.0680   -0.1210   -2.2000 O.3       1 ****        0.0000 
     24 H          -1.0000    2.0320   -0.1080 H         1 ****        0.0000 
     25 C          -0.8060    2.6720   -2.1040 C.3       1 ****        0.0000 
     26 H          -0.1620    2.4350   -2.9600 H         1 ****        0.0000 
     27 H          -0.6820    3.7540   -1.9670 H         1 ****        0.0000 
     28 C          -2.2680    2.4010   -2.2830 C.3       1 ****        0.0000 
     29 C          -3.2690    3.0480   -1.5460 C.3       1 ****        0.0000 
     30 C          -4.5040    2.4140   -1.2750 C.3       1 ****        0.0000 
     31 H          -5.2110    2.9130   -0.6200 H         1 ****        0.0000 
     32 H          -3.1230    4.0450   -1.1390 H         1 ****        0.0000 
     33 C          -2.5150    1.2370   -2.9560 C.3       1 ****        0.0000 
     34 H          -1.7420    0.8390   -3.6090 H         1 ****        0.0000 
     35 C          -3.7920    0.6770   -2.8620 C.3       1 ****        0.0000 
     36 H          -3.9920   -0.2390   -3.4100 H         1 ****        0.0000 
     37 C          -4.7410    1.1670   -1.9070 C.3       1 ****        0.0000 
     38 O          -5.8210    0.3880   -1.4440 O.3       1 ****        0.0000 
     39 C          -5.3850   -0.3680   -0.3960 C.3       1 ****        0.0000 
     40 C          -4.6700   -1.5430   -0.7010 C.3       1 ****        0.0000 
     41 C          -3.9390   -2.2070    0.2280 C.3       1 ****        0.0000 
     42 H          -3.3790   -3.0890   -0.0720 H         1 ****        0.0000 
     43 H          -4.7590   -1.8670   -1.7340 H         1 ****        0.0000 
     44 C          -5.4080    0.1370    0.9110 C.3       1 ****        0.0000 
     45 H          -5.9640    1.0360    1.1610 H         1 ****        0.0000 
     46 C          -4.7670   -0.6250    1.9140 C.3       1 ****        0.0000 
     47 H          -4.7680   -0.3330    2.9600 H         1 ****        0.0000 
     48 C          -4.0480   -1.8230    1.5700 C.3       1 ****        0.0000 
     49 C          -3.2380   -2.5490    2.6830 C.3       1 ****        0.0000 
     50 O          -3.5950   -2.4720    3.8320 O.3       1 ****        0.0000 
     51 C          -1.9450   -3.2180    2.2860 C.3       1 ****        0.0000 
     52 H          -1.5130   -3.7330    3.1540 H         1 ****        0.0000 
     53 H          -2.3490   -4.0250    1.6620 H         1 ****        0.0000 
     54 N          -1.0360   -2.3440    1.5500 N.3       1 ****        0.0000 
     55 H          -0.9400   -1.3430    1.6670 H         1 ****        0.0000 
     56 C          -0.0730   -2.8840    0.7110 C.3       1 ****        0.0000 
     57 O           0.1780   -4.0970    0.5590 O.3       1 ****        0.0000 
     58 C           0.7370   -1.8570   -0.1400 C.3       1 ****        0.0000 
     59 H           0.4430   -2.2180   -1.1340 H         1 ****        0.0000 
     60 C           2.2920   -1.9740   -0.0190 C.3       1 ****        0.0000 
     61 H           2.5620   -2.9900    0.2930 H         1 ****        0.0000 
     62 H           2.6540   -1.2460    0.7160 H         1 ****        0.0000 
     63 C           2.9080   -1.6970   -1.3990 C.3       1 ****        0.0000 
     64 H           2.5470   -2.3350   -2.2160 H         1 ****        0.0000 
     65 H           2.6510   -0.6770   -1.7090 H         1 ****        0.0000 
     66 C           4.4440   -1.9080   -1.3400 C.3       1 ****        0.0000 
     67 C           4.9880   -3.2150   -1.2280 C.3       1 ****        0.0000 
     68 H           4.2950   -4.0160   -0.9860 H         1 ****        0.0000 
     69 C           6.3530   -3.4560   -1.0600 C.3       1 ****        0.0000 
     70 H           6.7420   -4.4650   -0.9600 H         1 ****        0.0000 
     71 C           7.2530   -2.4110   -1.2350 C.3       1 ****        0.0000 
     72 H           8.3050   -2.6690   -1.1580 H         1 ****        0.0000 
     73 C           6.7280   -1.1360   -1.4620 C.3       1 ****        0.0000 
     74 H           7.4230   -0.3100   -1.5770 H         1 ****        0.0000 
     75 C           5.3540   -0.8790   -1.5760 C.3       1 ****        0.0000 
     76 H           5.0610    0.1560   -1.7170 H         1 ****        0.0000 
@<TRIPOS>BOND
     1    1    2 1    
     2    1    3 1    
     3    1    4 1    
     4    1    5 1    
     5    5    6 1    
     6    5   10 1    
     7    5   14 1    
     8    6    7 1    
     9    6    8 1    
    10    6    9 1    
    11   10   11 1    
    12   10   12 1    
    13   10   13 1    
    14   14   15 1    
    15   15   16 1    
    16   15   17 1    
    17   17   18 1    
    18   17   19 1    
    19   19   20 1    
    20   19   24 1    
    21   19   25 1    
    22   20   21 1    
    23   20   23 1    
    24   21   22 1    
    25   21   58 1    
    26   25   26 1    
    27   25   27 1    
    28   25   28 1    
    29   28   29 1    
    30   28   33 1    
    31   29   30 1    
    32   29   32 1    
    33   30   31 1    
    34   30   37 1    
    35   33   34 1    
    36   33   35 1    
    37   35   36 1    
    38   35   37 1    
    39   37   38 1    
    40   38   39 1    
    41   39   40 1    
    42   39   44 1    
    43   40   41 1    
    44   40   43 1    
    45   41   42 1    
    46   41   48 1    
    47   44   45 1    
    48   44   46 1    
    49   46   47 1    
    50   46   48 1    
    51   48   49 1    
    52   49   50 1    
    53   49   51 1    
    54   51   52 1    
    55   51   53 1    
    56   51   54 1    
    57   54   55 1    
    58   54   56 1    
    59   56   57 1    
    60   56   58 1    
    61   58   59 1    
    62   58   60 1    
    63   60   61 1    
    64   60   62 1    
    65   60   63 1    
    66   63   64 1    
    67   63   65 1    
    68   63   66 1    
    69   66   67 1    
    70   66   75 1    
    71   67   68 1    
    72   67   69 1    
    73   69   70 1    
    74   69   71 1    
    75   71   72 1    
    76   71   73 1    
    77   73   74 1    
    78   73   75 1    
    79   75   76 1    
@<TRIPOS>SUBSTRUCTURE
     1 ****        1 GROUP             0       ****    0 ROOT    
@<TRIPOS>MOLECULE
Cpd4-5000
76   79    1
SMALL
USER_CHARGES


@<TRIPOS>ATOM
      1 C           3.8014    4.0152    2.1567 C.3       1 ****        0.0000 
      2 H           3.0727    3.5653    2.8420 H         1 ****        0.0000 
      3 H           4.6716    4.1168    2.8175 H         1 ****        0.0000 
      4 H           3.5768    4.9663    1.6576 H         1 ****        0.0000 
      5 C           4.2744    3.0481    1.1022 C.3       1 ****        0.0000 
      6 C           4.6296    1.6568    1.6551 C.3       1 ****        0.0000 
      7 H           5.5015    1.6850    2.3180 H         1 ****        0.0000 
      8 H           3.8248    1.2792    2.2984 H         1 ****        0.0000 
      9 H           4.9773    0.9692    0.8732 H         1 ****        0.0000 
     10 C           5.5434    3.5456    0.3033 C.3       1 ****        0.0000 
     11 H           5.2517    4.3834   -0.3413 H         1 ****        0.0000 
     12 H           6.3963    3.7333    0.9686 H         1 ****        0.0000 
     13 H           5.8138    2.7733   -0.4275 H         1 ****        0.0000 
     14 O           3.2989    2.9505    0.0569 O.3       1 ****        0.0000 
     15 C           2.1362    2.4121    0.3217 C.3       1 ****        0.0000 
     16 O           1.7286    1.9093    1.3452 O.3       1 ****        0.0000 
     17 N           1.3984    2.4017   -0.8761 N.3       1 ****        0.0000 
     18 H           1.8037    2.9386   -1.6323 H         1 ****        0.0000 
     19 C           0.0153    1.8636   -0.9975 C.3       1 ****        0.0000 
     20 C          -0.2069    0.2923   -0.9418 C.3       1 ****        0.0000 
     21 N           0.4128   -0.3814    0.0619 N.3       1 ****        0.0000 
     22 H           1.0241    0.1774    0.6460 H         1 ****        0.0000 
     23 O          -0.8092   -0.2803   -1.8030 O.3       1 ****        0.0000 
     24 H          -0.4918    2.1687   -0.0751 H         1 ****        0.0000 
     25 C          -0.6662    2.5881   -2.2187 C.3       1 ****        0.0000 
     26 H          -0.1225    2.2368   -3.1051 H         1 ****        0.0000 
     27 H          -0.5347    3.6772   -2.2034 H         1 ****        0.0000 
     28 C          -2.2405    2.2925   -2.1641 C.3       1 ****        0.0000 
     29 C          -2.9617    2.6642   -1.0274 C.3       1 ****        0.0000 
     30 C          -4.2613    2.1863   -0.8558 C.3       1 ****        0.0000 
     31 H          -4.7922    2.2952    0.0862 H         1 ****        0.0000 
     32 H          -2.5345    3.2090   -0.1912 H         1 ****        0.0000 
     33 C          -2.8646    1.5539   -3.2194 C.3       1 ****        0.0000 
     34 H          -2.3575    1.3548   -4.1595 H         1 ****        0.0000 
     35 C          -4.1456    1.0631   -3.0802 C.3       1 ****        0.0000 
     36 H          -4.6849    0.5423   -3.8644 H         1 ****        0.0000 
     37 C          -4.8149    1.2642   -1.8146 C.3       1 ****        0.0000 
     38 O          -5.8824    0.5473   -1.4643 O.3       1 ****        0.0000 
     39 C          -5.5031   -0.3354   -0.4495 C.3       1 ****        0.0000 
     40 C          -4.5775   -1.3520   -0.7346 C.3       1 ****        0.0000 
     41 C          -3.7978   -1.9349    0.2723 C.3       1 ****        0.0000 
     42 H          -3.0227   -2.6230   -0.0563 H         1 ****        0.0000 
     43 H          -4.4449   -1.5951   -1.7834 H         1 ****        0.0000 
     44 C          -5.8138   -0.1152    0.9117 C.3       1 ****        0.0000 
     45 H          -6.4348    0.7389    1.1650 H         1 ****        0.0000 
     46 C          -5.1030   -0.7611    1.8901 C.3       1 ****        0.0000 
     47 H          -5.2207   -0.5588    2.9497 H         1 ****        0.0000 
     48 C          -4.0209   -1.5915    1.6108 C.3       1 ****        0.0000 
     49 C          -3.2202   -2.2543    2.7184 C.3       1 ****        0.0000 
     50 O          -3.4734   -2.0515    3.8756 O.3       1 ****        0.0000 
     51 C          -2.0220   -3.0964    2.2421 C.3       1 ****        0.0000 
     52 H          -1.5422   -3.5996    3.0913 H         1 ****        0.0000 
     53 H          -2.2966   -3.8453    1.4891 H         1 ****        0.0000 
     54 N          -1.0057   -2.2540    1.7301 N.3       1 ****        0.0000 
     55 H          -1.0483   -1.2460    1.6416 H         1 ****        0.0000 
     56 C          -0.0413   -2.8116    0.8795 C.3       1 ****        0.0000 
     57 O           0.2167   -4.0216    0.8989 O.3       1 ****        0.0000 
     58 C           0.7027   -1.8400   -0.0854 C.3       1 ****        0.0000 
     59 H           0.3953   -2.0865   -1.1103 H         1 ****        0.0000 
     60 C           2.2435   -2.0482    0.0883 C.3       1 ****        0.0000 
     61 H           2.5462   -2.9176    0.6848 H         1 ****        0.0000 
     62 H           2.7417   -1.1999    0.5726 H         1 ****        0.0000 
     63 C           2.9209   -2.3288   -1.2259 C.3       1 ****        0.0000 
     64 H           3.8443   -2.9019   -1.0757 H         1 ****        0.0000 
     65 H           2.2810   -3.0880   -1.6962 H         1 ****        0.0000 
     66 C           2.9016   -1.0558   -2.1286 C.3       1 ****        0.0000 
     67 C           3.8522   -0.0170   -1.8885 C.3       1 ****        0.0000 
     68 H           4.5204   -0.0546   -1.0330 H         1 ****        0.0000 
     69 C           3.9114    1.0181   -2.7900 C.3       1 ****        0.0000 
     70 H           4.7161    1.7454   -2.7464 H         1 ****        0.0000 
     71 C           2.9373    1.1804   -3.8068 C.3       1 ****        0.0000 
     72 H           3.0021    2.0066   -4.5101 H         1 ****        0.0000 
     73 C           1.9876    0.1999   -3.9773 C.3       1 ****        0.0000 
     74 H           1.3409    0.3225   -4.8425 H         1 ****        0.0000 
     75 C           2.0708   -0.9506   -3.2450 C.3       1 ****        0.0000 
     76 H           1.2685   -1.6557   -3.4437 H         1 ****        0.0000 
@<TRIPOS>BOND
     1    1    2 1    
     2    1    3 1    
     3    1    4 1    
     4    1    5 1    
     5    5    6 1    
     6    5   10 1    
     7    5   14 1    
     8    6    7 1    
     9    6    8 1    
    10    6    9 1    
    11   10   11 1    
    12   10   12 1    
    13   10   13 1    
    14   14   15 1    
    15   15   16 1    
    16   15   17 1    
    17   17   18 1    
    18   17   19 1    
    19   19   20 1    
    20   19   24 1    
    21   19   25 1    
    22   20   21 1    
    23   20   23 1    
    24   21   22 1    
    25   21   58 1    
    26   25   26 1    
    27   25   27 1    
    28   25   28 1    
    29   28   29 1    
    30   28   33 1    
    31   29   30 1    
    32   29   32 1    
    33   30   31 1    
    34   30   37 1    
    35   33   34 1    
    36   33   35 1    
    37   35   36 1    
    38   35   37 1    
    39   37   38 1    
    40   38   39 1    
    41   39   40 1    
    42   39   44 1    
    43   40   41 1    
    44   40   43 1    
    45   41   42 1    
    46   41   48 1    
    47   44   45 1    
    48   44   46 1    
    49   46   47 1    
    50   46   48 1    
    51   48   49 1    
    52   49   50 1    
    53   49   51 1    
    54   51   52 1    
    55   51   53 1    
    56   51   54 1    
    57   54   55 1    
    58   54   56 1    
    59   56   57 1    
    60   56   58 1    
    61   58   59 1    
    62   58   60 1    
    63   60   61 1    
    64   60   62 1    
    65   60   63 1    
    66   63   64 1    
    67   63   65 1    
    68   63   66 1    
    69   66   67 1    
    70   66   75 1    
    71   67   68 1    
    72   67   69 1    
    73   69   70 1    
    74   69   71 1    
    75   71   72 1    
    76   71   73 1    
    77   73   74 1    
    78   73   75 1    
    79   75   76 1    
@<TRIPOS>SUBSTRUCTURE
     1 ****        1 GROUP             0       ****    0 ROOT    
