@<TRIPOS>MOLECULE
Cpd4-1
76   79    1
SMALL
USER_CHARGES


@<TRIPOS>ATOM
      1 N1         -0.0384    2.4865   -0.4456 N.am      1 UNK         0.0000 
      2 O2         -2.7567    4.2493    0.7519 O.2       1 UNK         0.0000 
      3 C3         -6.2815   -1.3682   -0.2455 C.ar      1 UNK         0.0000 
      4 N4          0.8948    0.0501   -1.6236 N.am      1 UNK         0.0000 
      5 O5          0.6157   -1.7663   -2.9545 O.2       1 UNK         0.0000 
      6 C6         -5.2351   -2.1310   -0.7654 C.ar      1 UNK         0.0000 
      7 N7          3.0751   -1.0241   -0.3992 N.am      1 UNK         0.0000 
      8 O8         -0.7981    3.0328   -2.5187 O.2       1 UNK         0.0000 
      9 C9         -6.2381    0.0211   -0.3595 C.ar      1 UNK         0.0000 
     10 O10         4.8238   -0.3681   -1.7147 O.2       1 UNK         0.0000 
     11 C11        -4.1487   -1.5071   -1.3784 C.ar      1 UNK         0.0000 
     12 O12        -1.8428   -1.7089    3.0130 O.3       1 UNK         0.0000 
     13 C13        -5.1476    0.6385   -0.9726 C.ar      1 UNK         0.0000 
     14 C14         1.3244   -2.9247    1.5951 C.ar      1 UNK         0.0000 
     15 C15        -0.3805   -2.9656   -0.1018 C.ar      1 UNK         0.0000 
     16 C16        -0.8083    1.7484    2.4232 C.ar      1 UNK         0.0000 
     17 C17        -3.0694    1.4544    1.6176 C.ar      1 UNK         0.0000 
     18 C18         0.3782   -2.5434    2.5492 C.ar      1 UNK         0.0000 
     19 C19        -1.3314   -2.5781    0.8358 C.ar      1 UNK         0.0000 
     20 C20        -0.8218    0.4611    2.9361 C.ar      1 UNK         0.0000 
     21 C21        -3.0773    0.1416    2.0926 C.ar      1 UNK         0.0000 
     22 C22         2.0196   -3.2285   -0.8270 C.3       1 UNK         0.0000 
     23 C23        -0.4780    3.7165    0.2011 C.3       1 UNK         0.0000 
     24 C24        -2.8829    0.5802   -2.0956 C.3       1 UNK         0.0000 
     25 C25        -1.5595    0.0204   -1.5686 C.3       1 UNK         0.0000 
     26 C26         0.9714   -3.0777    0.2491 C.ar      1 UNK         0.0000 
     27 C27        -4.0798   -0.1117   -1.4764 C.ar      1 UNK         0.0000 
     28 C28        -1.9193    2.2389    1.7222 C.ar      1 UNK         0.0000 
     29 C29        -0.9297   -2.3121    2.1412 C.ar      1 UNK         0.0000 
     30 C30        -1.9309   -0.3570    2.7035 C.ar      1 UNK         0.0000 
     31 C31        -1.8195    3.4946    0.9186 C.2       1 UNK         0.0000 
     32 C32         1.2375   -1.1777   -2.0719 C.2       1 UNK         0.0000 
     33 C33        -0.3707    2.1967   -1.7325 C.2       1 UNK         0.0000 
     34 C34         4.2760   -0.4115   -0.6259 C.2       1 UNK         0.0000 
     35 C35         2.4443   -1.8533   -1.4034 C.3       1 UNK         0.0000 
     36 C36        -0.3018    0.7220   -2.1218 C.3       1 UNK         0.0000 
     37 H37         3.1782   -2.0202   -2.1971 H         1 UNK         0.0000 
     38 H38        -0.3037    0.6817   -3.2149 H         1 UNK         0.0000 
     39 H39        -7.1243   -1.8523    0.2377 H         1 UNK         0.0000 
     40 H40        -5.2629   -3.2142   -0.6941 H         1 UNK         0.0000 
     41 H41        -7.0498    0.6265    0.0325 H         1 UNK         0.0000 
     42 H42        -3.3483   -2.1203   -1.7855 H         1 UNK         0.0000 
     43 H43        -5.1192    1.7229   -1.0532 H         1 UNK         0.0000 
     44 H44         2.3572   -3.0732    1.9019 H         1 UNK         0.0000 
     45 H45        -0.6770   -3.1352   -1.1337 H         1 UNK         0.0000 
     46 H46         0.0802    2.3611    2.5522 H         1 UNK         0.0000 
     47 H47        -3.9313    1.8426    1.0853 H         1 UNK         0.0000 
     48 H48         0.6613   -2.3756    3.5833 H         1 UNK         0.0000 
     49 H49        -2.3690   -2.4190    0.5535 H         1 UNK         0.0000 
     50 H50         0.0418    0.0627    3.4569 H         1 UNK         0.0000 
     51 H51        -3.9324   -0.5078    1.9241 H         1 UNK         0.0000 
     52 H52         2.9179   -3.7154   -0.4374 H         1 UNK         0.0000 
     53 H53         1.6354   -3.8269   -1.6563 H         1 UNK         0.0000 
     54 H54        -0.6146    4.4846   -0.5591 H         1 UNK         0.0000 
     55 H55         0.2818    4.0537    0.9123 H         1 UNK         0.0000 
     56 H56        -2.9543    1.6541   -1.8881 H         1 UNK         0.0000 
     57 H57        -2.9082    0.4727   -3.1882 H         1 UNK         0.0000 
     58 H58        -1.5388    0.0737   -0.4706 H         1 UNK         0.0000 
     59 H59        -1.4656   -1.0330   -1.8397 H         1 UNK         0.0000 
     60 H60         0.1714    1.7081    0.1678 H         1 UNK         0.0000 
     61 H61         1.5210    0.4947   -0.9642 H         1 UNK         0.0000 
     62 H62         2.7617   -1.0843    0.5625 H         1 UNK         0.0000 
     63 O63         4.7294    0.1361    0.5093 O.3       1 UNK         0.0000 
     64 C64         5.9705    0.9148    0.5313 C.3       1 UNK         0.0000 
     65 C65         5.8396    2.1314   -0.3796 C.3       1 UNK         0.0000 
     66 H66         6.7076    2.7804   -0.2322 H         1 UNK         0.0000 
     67 H67         5.7937    1.8407   -1.4296 H         1 UNK         0.0000 
     68 H68         4.9401    2.6989   -0.1221 H         1 UNK         0.0000 
     69 C69         6.0680    1.3453    1.9901 C.3       1 UNK         0.0000 
     70 H70         5.2003    1.9492    2.2697 H         1 UNK         0.0000 
     71 H71         6.1154    0.4702    2.6442 H         1 UNK         0.0000 
     72 H72         6.9719    1.9418    2.1377 H         1 UNK         0.0000 
     73 C73         7.1520    0.0266    0.1549 C.3       1 UNK         0.0000 
     74 H74         7.1648   -0.8683    0.7843 H         1 UNK         0.0000 
     75 H75         7.1086   -0.2708   -0.8931 H         1 UNK         0.0000 
     76 H76         8.0802    0.5793    0.3262 H         1 UNK         0.0000 
@<TRIPOS>BOND
     1    1   60 1    
     2    1   23 1    
     3    1   33 am   BACKBONE|DICT|INTERRES
     4    2   31 2    
     5    3   39 1    
     6    3    6 ar   
     7    3    9 ar   
     8    4   61 1    
     9    4   32 am   BACKBONE|DICT|INTERRES
    10    4   36 1    
    11    5   32 2    
    12    6   40 1    
    13    6   11 ar   
    14    7   62 1    
    15    7   34 am   BACKBONE|DICT|INTERRES
    16    7   35 1    
    17    8   33 2    
    18    9   41 1    
    19    9   13 ar   
    20   10   34 2    
    21   11   27 ar   
    22   11   42 1    
    23   12   29 1    
    24   12   30 1    
    25   13   27 ar   
    26   13   43 1    
    27   14   44 1    
    28   14   18 ar   
    29   14   26 ar   
    30   15   26 ar   
    31   15   19 ar   
    32   15   45 1    
    33   16   46 1    
    34   16   20 ar   
    35   16   28 ar   
    36   17   28 ar   
    37   17   21 ar   
    38   17   47 1    
    39   18   48 1    
    40   18   29 ar   
    41   19   29 ar   
    42   19   49 1    
    43   20   50 1    
    44   20   30 ar   
    45   21   30 ar   
    46   21   51 1    
    47   22   52 1    
    48   22   26 1    
    49   22   35 1    
    50   22   53 1    
    51   23   55 1    
    52   23   31 1    
    53   23   54 1    
    54   24   56 1    
    55   24   25 1    
    56   24   27 1    
    57   24   57 1    
    58   25   58 1    
    59   25   36 1    
    60   25   59 1    
    61   28   31 1    
    62   32   35 1    
    63   33   36 1    
    64   34   63 1    
    65   35   37 1    
    66   36   38 1    
    67   63   64 1    
    68   64   69 1    
    69   64   65 1    
    70   64   73 1    
    71   65   66 1    
    72   65   68 1    
    73   65   67 1    
    74   69   72 1    
    75   69   70 1    
    76   69   71 1    
    77   73   76 1    
    78   73   74 1    
    79   73   75 1    
@<TRIPOS>SUBSTRUCTURE
     1 UNK         1 GROUP             0       ****    0 ROOT    
@<TRIPOS>MOLECULE
Cpd4-2
76   79    1
SMALL
USER_CHARGES


@<TRIPOS>ATOM
      1 N1         -1.0155    2.9023   -1.1558 N.am      1 UNK         0.0000 
      2 O2         -3.2570    4.3250    0.9416 O.2       1 UNK         0.0000 
      3 C3         -6.1094   -1.5216   -0.3507 C.ar      1 UNK         0.0000 
      4 N4          0.9592   -0.1205   -1.5644 N.am      1 UNK         0.0000 
      5 O5          0.4360   -1.7714   -3.0286 O.2       1 UNK         0.0000 
      6 C6         -5.9548   -0.1357   -0.3679 C.ar      1 UNK         0.0000 
      7 N7          3.2412   -1.3845   -0.7651 N.am      1 UNK         0.0000 
      8 O8          1.0574    2.2595   -0.4924 O.2       1 UNK         0.0000 
      9 C9         -5.1827   -2.3280   -1.0148 C.ar      1 UNK         0.0000 
     10 O10         4.4322   -0.4015   -2.4389 O.2       1 UNK         0.0000 
     11 C11        -4.8752    0.4388   -1.0399 C.ar      1 UNK         0.0000 
     12 O12        -1.6112   -1.5328    2.9900 O.3       1 UNK         0.0000 
     13 C13        -4.1067   -1.7488   -1.6859 C.ar      1 UNK         0.0000 
     14 C14         1.4097   -2.9451    1.4452 C.ar      1 UNK         0.0000 
     15 C15        -0.4214   -3.0739   -0.1084 C.ar      1 UNK         0.0000 
     16 C16        -0.8164    1.8707    1.8805 C.ar      1 UNK         0.0000 
     17 C17        -3.2120    1.5495    1.8209 C.ar      1 UNK         0.0000 
     18 C18         0.5496   -2.4558    2.4307 C.ar      1 UNK         0.0000 
     19 C19        -1.2891   -2.5828    0.8606 C.ar      1 UNK         0.0000 
     20 C20        -0.6561    0.6007    2.4127 C.ar      1 UNK         0.0000 
     21 C21        -3.0586    0.2600    2.3283 C.ar      1 UNK         0.0000 
     22 C22         1.8990   -3.4466   -1.0001 C.3       1 UNK         0.0000 
     23 C23        -1.1844    3.9972   -0.2145 C.3       1 UNK         0.0000 
     24 C24        -2.7153    0.2537   -2.3406 C.3       1 UNK         0.0000 
     25 C25        -1.5044    0.0356   -1.4226 C.3       1 UNK         0.0000 
     26 C26         0.9500   -3.1937    0.1464 C.ar      1 UNK         0.0000 
     27 C27        -3.9382   -0.3592   -1.7021 C.ar      1 UNK         0.0000 
     28 C28        -2.0927    2.3444    1.5514 C.ar      1 UNK         0.0000 
     29 C29        -0.7797   -2.2181    2.1028 C.ar      1 UNK         0.0000 
     30 C30        -1.7756   -0.2160    2.5874 C.ar      1 UNK         0.0000 
     31 C31        -2.2652    3.6315    0.8163 C.2       1 UNK         0.0000 
     32 C32         1.1698   -1.3106   -2.1519 C.2       1 UNK         0.0000 
     33 C33         0.0277    2.0396   -1.1232 C.2       1 UNK         0.0000 
     34 C34         4.2368   -0.5893   -1.2484 C.2       1 UNK         0.0000 
     35 C35         2.3760   -2.1266   -1.6556 C.3       1 UNK         0.0000 
     36 C36        -0.1883    0.7131   -1.8705 C.3       1 UNK         0.0000 
     37 H37         2.9526   -2.3764   -2.5511 H         1 UNK         0.0000 
     38 H38        -0.2195    0.9042   -2.9521 H         1 UNK         0.0000 
     39 H39        -6.9473   -1.9714    0.1725 H         1 UNK         0.0000 
     40 H40        -6.6721    0.4991    0.1435 H         1 UNK         0.0000 
     41 H41        -5.2993   -3.4076   -1.0113 H         1 UNK         0.0000 
     42 H42        -4.7532    1.5202   -1.0457 H         1 UNK         0.0000 
     43 H43        -3.3869   -2.3807   -2.2031 H         1 UNK         0.0000 
     44 H44         2.4571   -3.1064    1.6906 H         1 UNK         0.0000 
     45 H45        -0.8005   -3.3137   -1.0990 H         1 UNK         0.0000 
     46 H46         0.0627    2.4797    1.7010 H         1 UNK         0.0000 
     47 H47        -4.2012    1.9210    1.5713 H         1 UNK         0.0000 
     48 H48         0.9143   -2.2073    3.4223 H         1 UNK         0.0000 
     49 H49        -2.3412   -2.4162    0.6410 H         1 UNK         0.0000 
     50 H50         0.3332    0.2238    2.6482 H         1 UNK         0.0000 
     51 H51        -3.9131   -0.3930    2.4746 H         1 UNK         0.0000 
     52 H52         2.7880   -3.9937   -0.6732 H         1 UNK         0.0000 
     53 H53         1.4033   -4.0346   -1.7762 H         1 UNK         0.0000 
     54 H54        -1.5022    4.9045   -0.7302 H         1 UNK         0.0000 
     55 H55        -0.2221    4.1806    0.2697 H         1 UNK         0.0000 
     56 H56        -2.9139    1.3125   -2.5412 H         1 UNK         0.0000 
     57 H57        -2.5065   -0.2128   -3.3107 H         1 UNK         0.0000 
     58 H58        -1.7475    0.3388   -0.3954 H         1 UNK         0.0000 
     59 H59        -1.3161   -1.0371   -1.3957 H         1 UNK         0.0000 
     60 H60        -1.8264    2.6444   -1.7011 H         1 UNK         0.0000 
     61 H61         1.6090    0.2300   -0.8698 H         1 UNK         0.0000 
     62 H62         3.1545   -1.4839    0.2379 H         1 UNK         0.0000 
     63 O63         4.9373   -0.0561   -0.2379 O.3       1 UNK         0.0000 
     64 C64         6.0206    0.8970   -0.4909 C.3       1 UNK         0.0000 
     65 C65         5.4750    2.1310   -1.2028 C.3       1 UNK         0.0000 
     66 H66         6.2574    2.8945   -1.2399 H         1 UNK         0.0000 
     67 H67         5.1632    1.8982   -2.2216 H         1 UNK         0.0000 
     68 H68         4.6236    2.5387   -0.6494 H         1 UNK         0.0000 
     69 C69         6.4872    1.2531    0.9158 C.3       1 UNK         0.0000 
     70 H70         5.6706    1.7034    1.4869 H         1 UNK         0.0000 
     71 H71         6.8349    0.3591    1.4408 H         1 UNK         0.0000 
     72 H72         7.3115    1.9687    0.8595 H         1 UNK         0.0000 
     73 C73         7.1419    0.2190   -1.2717 C.3       1 UNK         0.0000 
     74 H74         7.4554   -0.6963   -0.7607 H         1 UNK         0.0000 
     75 H75         6.8282   -0.0252   -2.2871 H         1 UNK         0.0000 
     76 H76         8.0003    0.8953   -1.3208 H         1 UNK         0.0000 
@<TRIPOS>BOND
     1    1   33 am   BACKBONE|DICT|INTERRES
     2    1   23 1    
     3    1   60 1    
     4    2   31 2    
     5    3   39 1    
     6    3    6 ar   
     7    3    9 ar   
     8    4   61 1    
     9    4   32 am   BACKBONE|DICT|INTERRES
    10    4   36 1    
    11    5   32 2    
    12    6   40 1    
    13    6   11 ar   
    14    7   62 1    
    15    7   34 am   BACKBONE|DICT|INTERRES
    16    7   35 1    
    17    8   33 2    
    18    9   41 1    
    19    9   13 ar   
    20   10   34 2    
    21   11   27 ar   
    22   11   42 1    
    23   12   29 1    
    24   12   30 1    
    25   13   27 ar   
    26   13   43 1    
    27   14   44 1    
    28   14   18 ar   
    29   14   26 ar   
    30   15   26 ar   
    31   15   19 ar   
    32   15   45 1    
    33   16   20 ar   
    34   16   28 ar   
    35   16   46 1    
    36   17   21 ar   
    37   17   28 ar   
    38   17   47 1    
    39   18   48 1    
    40   18   29 ar   
    41   19   29 ar   
    42   19   49 1    
    43   20   30 ar   
    44   20   50 1    
    45   21   51 1    
    46   21   30 ar   
    47   22   52 1    
    48   22   26 1    
    49   22   35 1    
    50   22   53 1    
    51   23   55 1    
    52   23   31 1    
    53   23   54 1    
    54   24   27 1    
    55   24   25 1    
    56   24   56 1    
    57   24   57 1    
    58   25   59 1    
    59   25   58 1    
    60   25   36 1    
    61   28   31 1    
    62   32   35 1    
    63   33   36 1    
    64   34   63 1    
    65   35   37 1    
    66   36   38 1    
    67   63   64 1    
    68   64   69 1    
    69   64   65 1    
    70   64   73 1    
    71   65   68 1    
    72   65   66 1    
    73   65   67 1    
    74   69   70 1    
    75   69   71 1    
    76   69   72 1    
    77   73   74 1    
    78   73   75 1    
    79   73   76 1    
@<TRIPOS>SUBSTRUCTURE
     1 UNK         1 GROUP             0       ****    0 ROOT    
@<TRIPOS>MOLECULE
Cpd4-3
76   79    1
SMALL
USER_CHARGES


@<TRIPOS>ATOM
      1 N1         -0.9920    2.9058   -1.1657 N.am      1 UNK         0.0000 
      2 O2         -3.2526    4.3168    0.9183 O.2       1 UNK         0.0000 
      3 C3         -5.4795   -2.9405   -0.8857 C.ar      1 UNK         0.0000 
      4 N4          0.9870   -0.1151   -1.5950 N.am      1 UNK         0.0000 
      5 O5          0.4513   -1.7667   -3.0580 O.2       1 UNK         0.0000 
      6 C6         -4.4340   -3.1459   -1.7895 C.ar      1 UNK         0.0000 
      7 N7          3.2591   -1.4032   -0.7956 N.am      1 UNK         0.0000 
      8 O8          1.0229    2.2027   -0.3941 O.2       1 UNK         0.0000 
      9 C9         -5.6828   -1.6716   -0.3468 C.ar      1 UNK         0.0000 
     10 O10         4.4284   -0.4091   -2.4783 O.2       1 UNK         0.0000 
     11 C11        -3.5948   -2.0903   -2.1374 C.ar      1 UNK         0.0000 
     12 O12        -1.6108   -1.5279    3.0011 O.3       1 UNK         0.0000 
     13 C13        -4.8387   -0.6163   -0.7007 C.ar      1 UNK         0.0000 
     14 C14         1.4077   -2.9078    1.4244 C.ar      1 UNK         0.0000 
     15 C15        -0.4404   -3.0831   -0.1030 C.ar      1 UNK         0.0000 
     16 C16        -0.8213    1.8941    1.9391 C.ar      1 UNK         0.0000 
     17 C17        -3.2043    1.5304    1.7612 C.ar      1 UNK         0.0000 
     18 C18         0.5538   -2.4202    2.4144 C.ar      1 UNK         0.0000 
     19 C19        -1.3049   -2.5965    0.8731 C.ar      1 UNK         0.0000 
     20 C20        -0.6675    0.6282    2.4865 C.ar      1 UNK         0.0000 
     21 C21        -3.0553    0.2453    2.2802 C.ar      1 UNK         0.0000 
     22 C22         1.8801   -3.4444   -1.0151 C.3       1 UNK         0.0000 
     23 C23        -1.1703    3.9975   -0.2226 C.3       1 UNK         0.0000 
     24 C24        -2.8035    0.2963   -1.9172 C.3       1 UNK         0.0000 
     25 C25        -1.4404   -0.0442   -1.3003 C.3       1 UNK         0.0000 
     26 C26         0.9361   -3.1787    0.1339 C.ar      1 UNK         0.0000 
     27 C27        -3.7809   -0.8129   -1.5905 C.ar      1 UNK         0.0000 
     28 C28        -2.0867    2.3421    1.5405 C.ar      1 UNK         0.0000 
     29 C29        -0.7847   -2.2079    2.1036 C.ar      1 UNK         0.0000 
     30 C30        -1.7787   -0.2090    2.6026 C.ar      1 UNK         0.0000 
     31 C31        -2.2564    3.6288    0.8004 C.2       1 UNK         0.0000 
     32 C32         1.1865   -1.3086   -2.1812 C.2       1 UNK         0.0000 
     33 C33         0.0243    2.0152   -1.0831 C.2       1 UNK         0.0000 
     34 C34         4.2431   -0.5983   -1.2863 C.2       1 UNK         0.0000 
     35 C35         2.3812   -2.1375   -1.6798 C.3       1 UNK         0.0000 
     36 C36        -0.1937    0.6966   -1.8325 C.3       1 UNK         0.0000 
     37 H37         2.9528   -2.4063   -2.5730 H         1 UNK         0.0000 
     38 H38        -0.3013    0.8855   -2.9087 H         1 UNK         0.0000 
     39 H39        -6.1319   -3.7628   -0.6095 H         1 UNK         0.0000 
     40 H40        -4.2735   -4.1285   -2.2224 H         1 UNK         0.0000 
     41 H41        -6.4964   -1.4995    0.3513 H         1 UNK         0.0000 
     42 H42        -2.7795   -2.2571   -2.8394 H         1 UNK         0.0000 
     43 H43        -5.0031    0.3708   -0.2773 H         1 UNK         0.0000 
     44 H44         2.4593   -3.0554    1.6603 H         1 UNK         0.0000 
     45 H45        -0.8321   -3.3386   -1.0852 H         1 UNK         0.0000 
     46 H46         0.0544    2.5182    1.8012 H         1 UNK         0.0000 
     47 H47        -4.1861    1.8926    1.4707 H         1 UNK         0.0000 
     48 H48         0.9272   -2.1580    3.3991 H         1 UNK         0.0000 
     49 H49        -2.3623   -2.4490    0.6611 H         1 UNK         0.0000 
     50 H50         0.3147    0.2691    2.7741 H         1 UNK         0.0000 
     51 H51        -3.9043   -0.4220    2.3880 H         1 UNK         0.0000 
     52 H52         2.7602   -4.0057   -0.6872 H         1 UNK         0.0000 
     53 H53         1.3743   -4.0273   -1.7886 H         1 UNK         0.0000 
     54 H54        -1.4840    4.9051   -0.7397 H         1 UNK         0.0000 
     55 H55        -0.2122    4.1792    0.2705 H         1 UNK         0.0000 
     56 H56        -3.2055    1.2411   -1.5349 H         1 UNK         0.0000 
     57 H57        -2.6992    0.3923   -3.0059 H         1 UNK         0.0000 
     58 H58        -1.4835    0.0548   -0.2078 H         1 UNK         0.0000 
     59 H59        -1.2535   -1.0956   -1.5130 H         1 UNK         0.0000 
     60 H60        -1.7578    2.7045   -1.7947 H         1 UNK         0.0000 
     61 H61         1.6222    0.2109   -0.8751 H         1 UNK         0.0000 
     62 H62         3.1734   -1.4923    0.2082 H         1 UNK         0.0000 
     63 O63         4.9462   -0.0593   -0.2805 O.3       1 UNK         0.0000 
     64 C64         6.0098    0.9139   -0.5392 C.3       1 UNK         0.0000 
     65 C65         5.4338    2.1414   -1.2383 C.3       1 UNK         0.0000 
     66 H66         6.2022    2.9187   -1.2824 H         1 UNK         0.0000 
     67 H67         5.1127    1.9077   -2.2540 H         1 UNK         0.0000 
     68 H68         4.5828    2.5317   -0.6719 H         1 UNK         0.0000 
     69 C69         6.4849    1.2704    0.8645 C.3       1 UNK         0.0000 
     70 H70         5.6666    1.7028    1.4469 H         1 UNK         0.0000 
     71 H71         6.8540    0.3796    1.3803 H         1 UNK         0.0000 
     72 H72         7.2957    2.0008    0.8037 H         1 UNK         0.0000 
     73 C73         7.1350    0.2615   -1.3360 C.3       1 UNK         0.0000 
     74 H74         7.4698   -0.6519   -0.8351 H         1 UNK         0.0000 
     75 H75         6.8152    0.0192   -2.3499 H         1 UNK         0.0000 
     76 H76         7.9806    0.9533   -1.3886 H         1 UNK         0.0000 
@<TRIPOS>BOND
     1    1   33 am   BACKBONE|DICT|INTERRES
     2    1   23 1    
     3    1   60 1    
     4    2   31 2    
     5    3    9 ar   
     6    3   39 1    
     7    3    6 ar   
     8    4   61 1    
     9    4   32 am   BACKBONE|DICT|INTERRES
    10    4   36 1    
    11    5   32 2    
    12    6   11 ar   
    13    6   40 1    
    14    7   62 1    
    15    7   34 am   BACKBONE|DICT|INTERRES
    16    7   35 1    
    17    8   33 2    
    18    9   41 1    
    19    9   13 ar   
    20   10   34 2    
    21   11   27 ar   
    22   11   42 1    
    23   12   29 1    
    24   12   30 1    
    25   13   43 1    
    26   13   27 ar   
    27   14   44 1    
    28   14   18 ar   
    29   14   26 ar   
    30   15   26 ar   
    31   15   19 ar   
    32   15   45 1    
    33   16   20 ar   
    34   16   28 ar   
    35   16   46 1    
    36   17   21 ar   
    37   17   28 ar   
    38   17   47 1    
    39   18   48 1    
    40   18   29 ar   
    41   19   29 ar   
    42   19   49 1    
    43   20   30 ar   
    44   20   50 1    
    45   21   51 1    
    46   21   30 ar   
    47   22   52 1    
    48   22   26 1    
    49   22   35 1    
    50   22   53 1    
    51   23   55 1    
    52   23   31 1    
    53   23   54 1    
    54   24   56 1    
    55   24   27 1    
    56   24   25 1    
    57   24   57 1    
    58   25   59 1    
    59   25   58 1    
    60   25   36 1    
    61   28   31 1    
    62   32   35 1    
    63   33   36 1    
    64   34   63 1    
    65   35   37 1    
    66   36   38 1    
    67   63   64 1    
    68   64   69 1    
    69   64   65 1    
    70   64   73 1    
    71   65   68 1    
    72   65   66 1    
    73   65   67 1    
    74   69   70 1    
    75   69   71 1    
    76   69   72 1    
    77   73   74 1    
    78   73   75 1    
    79   73   76 1    
@<TRIPOS>SUBSTRUCTURE
     1 UNK         1 GROUP             0       ****    0 ROOT    
@<TRIPOS>MOLECULE
Cpd4-4
76   79    1
SMALL
USER_CHARGES


@<TRIPOS>ATOM
      1 N1         -0.9825    2.9015   -1.1446 N.am      1 UNK         0.0000 
      2 O2         -3.2635    4.3157    0.8997 O.2       1 UNK         0.0000 
      3 C3         -6.1410   -1.4922   -0.3688 C.ar      1 UNK         0.0000 
      4 N4          0.9492   -0.1531   -1.5448 N.am      1 UNK         0.0000 
      5 O5          0.4351   -1.7449   -3.0742 O.2       1 UNK         0.0000 
      6 C6         -5.1984   -2.3007   -1.0074 C.ar      1 UNK         0.0000 
      7 N7          3.2902   -1.4153   -0.8723 N.am      1 UNK         0.0000 
      8 O8          1.0507    2.2024   -0.4166 O.2       1 UNK         0.0000 
      9 C9         -5.9936   -0.1059   -0.3992 C.ar      1 UNK         0.0000 
     10 O10         4.8647    0.2073   -0.5925 O.2       1 UNK         0.0000 
     11 C11        -4.1137   -1.7232   -1.6656 C.ar      1 UNK         0.0000 
     12 O12        -1.6148   -1.5285    2.9896 O.3       1 UNK         0.0000 
     13 C13        -4.9050    0.4670   -1.0585 C.ar      1 UNK         0.0000 
     14 C14         1.4197   -2.9003    1.4326 C.ar      1 UNK         0.0000 
     15 C15        -0.4194   -3.0712   -0.1071 C.ar      1 UNK         0.0000 
     16 C16        -0.8295    1.8888    1.9207 C.ar      1 UNK         0.0000 
     17 C17        -3.2187    1.5417    1.7913 C.ar      1 UNK         0.0000 
     18 C18         0.5587   -2.4148    2.4188 C.ar      1 UNK         0.0000 
     19 C19        -1.2884   -2.5830    0.8625 C.ar      1 UNK         0.0000 
     20 C20        -0.6712    0.6200    2.4562 C.ar      1 UNK         0.0000 
     21 C21        -3.0661    0.2527    2.3003 C.ar      1 UNK         0.0000 
     22 C22         1.8953   -3.4491   -1.0067 C.3       1 UNK         0.0000 
     23 C23        -1.1589    3.9932   -0.2003 C.3       1 UNK         0.0000 
     24 C24        -2.7219    0.2793   -2.3212 C.3       1 UNK         0.0000 
     25 C25        -1.5119    0.0305   -1.4100 C.3       1 UNK         0.0000 
     26 C26         0.9546   -3.1719    0.1409 C.ar      1 UNK         0.0000 
     27 C27        -3.9516   -0.3328   -1.6944 C.ar      1 UNK         0.0000 
     28 C28        -2.1002    2.3479    1.5528 C.ar      1 UNK         0.0000 
     29 C29        -0.7771   -2.2022    2.0989 C.ar      1 UNK         0.0000 
     30 C30        -1.7854   -0.2101    2.5937 C.ar      1 UNK         0.0000 
     31 C31        -2.2632    3.6293    0.8061 C.2       1 UNK         0.0000 
     32 C32         1.1652   -1.3193   -2.1769 C.2       1 UNK         0.0000 
     33 C33         0.0381    2.0130   -1.0832 C.2       1 UNK         0.0000 
     34 C34         4.1180   -0.4280   -1.3211 C.2       1 UNK         0.0000 
     35 C35         2.3701   -2.1559   -1.7140 C.3       1 UNK         0.0000 
     36 C36        -0.1866    0.6975   -1.8460 C.3       1 UNK         0.0000 
     37 H37         2.8879   -2.4499   -2.6312 H         1 UNK         0.0000 
     38 H38        -0.2092    0.8974   -2.9266 H         1 UNK         0.0000 
     39 H39        -6.9856   -1.9406    0.1448 H         1 UNK         0.0000 
     40 H40        -5.3092   -3.3807   -0.9940 H         1 UNK         0.0000 
     41 H41        -6.7234    0.5310    0.0918 H         1 UNK         0.0000 
     42 H42        -3.3821   -2.3574   -2.1632 H         1 UNK         0.0000 
     43 H43        -4.7894    1.5489   -1.0743 H         1 UNK         0.0000 
     44 H44         2.4700   -3.0449    1.6752 H         1 UNK         0.0000 
     45 H45        -0.8014   -3.3268   -1.0926 H         1 UNK         0.0000 
     46 H46         0.0479    2.5070    1.7677 H         1 UNK         0.0000 
     47 H47        -4.2044    1.9028    1.5143 H         1 UNK         0.0000 
     48 H48         0.9260   -2.1538    3.4061 H         1 UNK         0.0000 
     49 H49        -2.3441   -2.4337    0.6480 H         1 UNK         0.0000 
     50 H50         0.3148    0.2540    2.7202 H         1 UNK         0.0000 
     51 H51        -3.9174   -0.4099    2.4194 H         1 UNK         0.0000 
     52 H52         2.7861   -3.9910   -0.6746 H         1 UNK         0.0000 
     53 H53         1.3931   -4.0601   -1.7606 H         1 UNK         0.0000 
     54 H54        -1.4594    4.9048   -0.7188 H         1 UNK         0.0000 
     55 H55        -0.2046    4.1658    0.3030 H         1 UNK         0.0000 
     56 H56        -2.9113    1.3436   -2.4994 H         1 UNK         0.0000 
     57 H57        -2.5189   -0.1701   -3.3006 H         1 UNK         0.0000 
     58 H58        -1.7483    0.3179   -0.3765 H         1 UNK         0.0000 
     59 H59        -1.3356   -1.0448   -1.4027 H         1 UNK         0.0000 
     60 H60        -1.7778    2.6701   -1.7235 H         1 UNK         0.0000 
     61 H61         1.5805    0.1660   -0.8185 H         1 UNK         0.0000 
     62 H62         3.3405   -1.6037    0.1197 H         1 UNK         0.0000 
     63 O63         3.9798   -0.2664   -2.6426 O.3       1 UNK         0.0000 
     64 C64         4.5795    0.8733   -3.3390 C.3       1 UNK         0.0000 
     65 C65         4.0443    2.1718   -2.7448 C.3       1 UNK         0.0000 
     66 H66         4.3692    3.0103   -3.3674 H         1 UNK         0.0000 
     67 H67         2.9496    2.1536   -2.7309 H         1 UNK         0.0000 
     68 H68         4.4107    2.3262   -1.7286 H         1 UNK         0.0000 
     69 C69         6.1007    0.7841   -3.2852 C.3       1 UNK         0.0000 
     70 H70         6.4703    0.9359   -2.2708 H         1 UNK         0.0000 
     71 H71         6.4329   -0.1933   -3.6480 H         1 UNK         0.0000 
     72 H72         6.5248    1.5541   -3.9364 H         1 UNK         0.0000 
     73 C73         4.0769    0.6892   -4.7659 C.3       1 UNK         0.0000 
     74 H74         4.4219   -0.2656   -5.1724 H         1 UNK         0.0000 
     75 H75         2.9832    0.7081   -4.7889 H         1 UNK         0.0000 
     76 H76         4.4558    1.4966   -5.3977 H         1 UNK         0.0000 
@<TRIPOS>BOND
     1    1   60 1    
     2    1   23 1    
     3    1   33 am   BACKBONE|DICT|INTERRES
     4    2   31 2    
     5    3    6 ar   
     6    3    9 ar   
     7    3   39 1    
     8    4   36 1    
     9    4   32 am   BACKBONE|DICT|INTERRES
    10    4   61 1    
    11    5   32 2    
    12    6   11 ar   
    13    6   40 1    
    14    7   35 1    
    15    7   34 am   BACKBONE|DICT|INTERRES
    16    7   62 1    
    17    8   33 2    
    18    9   13 ar   
    19    9   41 1    
    20   10   34 2    
    21   11   42 1    
    22   11   27 ar   
    23   12   30 1    
    24   12   29 1    
    25   13   27 ar   
    26   13   43 1    
    27   14   26 ar   
    28   14   18 ar   
    29   14   44 1    
    30   15   45 1    
    31   15   19 ar   
    32   15   26 ar   
    33   16   28 ar   
    34   16   20 ar   
    35   16   46 1    
    36   17   47 1    
    37   17   21 ar   
    38   17   28 ar   
    39   18   29 ar   
    40   18   48 1    
    41   19   49 1    
    42   19   29 ar   
    43   20   30 ar   
    44   20   50 1    
    45   21   51 1    
    46   21   30 ar   
    47   22   35 1    
    48   22   53 1    
    49   22   26 1    
    50   22   52 1    
    51   23   54 1    
    52   23   31 1    
    53   23   55 1    
    54   24   56 1    
    55   24   57 1    
    56   24   25 1    
    57   24   27 1    
    58   25   59 1    
    59   25   36 1    
    60   25   58 1    
    61   28   31 1    
    62   32   35 1    
    63   33   36 1    
    64   34   63 1    
    65   35   37 1    
    66   36   38 1    
    67   63   64 1    
    68   64   73 1    
    69   64   65 1    
    70   64   69 1    
    71   65   66 1    
    72   65   67 1    
    73   65   68 1    
    74   69   72 1    
    75   69   71 1    
    76   69   70 1    
    77   73   76 1    
    78   73   75 1    
    79   73   74 1    
@<TRIPOS>SUBSTRUCTURE
     1 UNK         1 GROUP             0       ****    0 ROOT    
@<TRIPOS>MOLECULE
Cpd4-5-MEC
76   79    1
SMALL
USER_CHARGES


@<TRIPOS>ATOM
      1 N1         -0.2986    2.9244   -0.6653 N.am      1 UNK         0.0000 
      2 O2         -1.8876    4.7088    1.8342 O.2       1 UNK         0.0000 
      3 C3          3.9280    4.4356   -6.6935 C.ar      1 UNK         0.0000 
      4 N4          0.5757   -0.2368   -2.0369 N.am      1 UNK         0.0000 
      5 O5          2.7200   -0.9368   -1.8131 O.2       1 UNK         0.0000 
      6 C6          2.5512    4.6070   -6.5473 C.ar      1 UNK         0.0000 
      7 N7          1.7955   -2.9737   -3.5944 N.am      1 UNK         0.0000 
      8 O8         -1.4421    1.5987   -2.1185 O.2       1 UNK         0.0000 
      9 C9          4.6680    3.8782   -5.6500 C.ar      1 UNK         0.0000 
     10 O10         0.2168   -4.4815   -4.2511 O.2       1 UNK         0.0000 
     11 C11         1.9206    4.2231   -5.3638 C.ar      1 UNK         0.0000 
     12 O12        -1.6615   -1.5736    3.0637 O.3       1 UNK         0.0000 
     13 C13         4.0326    3.4955   -4.4689 C.ar      1 UNK         0.0000 
     14 C14         1.2335   -2.2730    0.9310 C.ar      1 UNK         0.0000 
     15 C15        -0.5889   -3.7019    0.2705 C.ar      1 UNK         0.0000 
     16 C16        -2.3831    1.2801    0.8963 C.ar      1 UNK         0.0000 
     17 C17        -1.6229    2.0842    3.0486 C.ar      1 UNK         0.0000 
     18 C18         0.4694   -1.7758    1.9801 C.ar      1 UNK         0.0000 
     19 C19        -1.3668   -3.2145    1.3223 C.ar      1 UNK         0.0000 
     20 C20        -2.3613   -0.0198    1.3712 C.ar      1 UNK         0.0000 
     21 C21        -1.5722    0.7762    3.5273 C.ar      1 UNK         0.0000 
     22 C22         1.4523   -3.5752   -1.2144 C.3       1 UNK         0.0000 
     23 C23        -1.4005    3.8067   -0.3230 C.3       1 UNK         0.0000 
     24 C24         1.9592    3.2063   -3.0502 C.3       1 UNK         0.0000 
     25 C25         1.5219    1.7403   -3.1630 C.3       1 UNK         0.0000 
     26 C26         0.6990   -3.2099    0.0380 C.ar      1 UNK         0.0000 
     27 C27         2.6528    3.6639   -4.3112 C.ar      1 UNK         0.0000 
     28 C28        -1.9742    2.3369    1.7187 C.ar      1 UNK         0.0000 
     29 C29        -0.8413   -2.2203    2.1365 C.ar      1 UNK         0.0000 
     30 C30        -1.8887   -0.2677    2.6622 C.ar      1 UNK         0.0000 
     31 C31        -1.7933    3.7015    1.1571 C.2       1 UNK         0.0000 
     32 C32         1.5354   -1.1819   -2.0424 C.2       1 UNK         0.0000 
     33 C33        -0.3961    1.9107   -1.5519 C.2       1 UNK         0.0000 
     34 C34         1.3154   -3.9659   -4.3934 C.2       1 UNK         0.0000 
     35 C35         1.1032   -2.6132   -2.3709 C.3       1 UNK         0.0000 
     36 C36         0.9019    1.1721   -1.8718 C.3       1 UNK         0.0000 
     37 H37         0.0288   -2.6588   -2.5706 H         1 UNK         0.0000 
     38 H38         1.6180    1.2618   -1.0477 H         1 UNK         0.0000 
     39 H39         4.4213    4.7369   -7.6123 H         1 UNK         0.0000 
     40 H40         1.9681    5.0431   -7.3528 H         1 UNK         0.0000 
     41 H41         5.7405    3.7447   -5.7539 H         1 UNK         0.0000 
     42 H42         0.8474    4.3613   -5.2524 H         1 UNK         0.0000 
     43 H43         4.6135    3.0634   -3.6570 H         1 UNK         0.0000 
     44 H44         2.2427   -1.9005    0.7755 H         1 UNK         0.0000 
     45 H45        -1.0076   -4.4459   -0.4025 H         1 UNK         0.0000 
     46 H46        -2.6875    1.4618   -0.1297 H         1 UNK         0.0000 
     47 H47        -1.3201    2.9107    3.6842 H         1 UNK         0.0000 
     48 H48         0.8582   -1.0090    2.6437 H         1 UNK         0.0000 
     49 H49        -2.3870   -3.5520    1.4746 H         1 UNK         0.0000 
     50 H50        -2.6378   -0.8480    0.7274 H         1 UNK         0.0000 
     51 H51        -1.2255    0.5539    4.5307 H         1 UNK         0.0000 
     52 H52         2.5334   -3.5260   -1.0491 H         1 UNK         0.0000 
     53 H53         1.1986   -4.5867   -1.5458 H         1 UNK         0.0000 
     54 H54        -2.2509    3.5365   -0.9560 H         1 UNK         0.0000 
     55 H55        -1.1334    4.8472   -0.5192 H         1 UNK         0.0000 
     56 H56         1.0889    3.8450   -2.8625 H         1 UNK         0.0000 
     57 H57         2.6374    3.3192   -2.1954 H         1 UNK         0.0000 
     58 H58         0.7924    1.6266   -3.9738 H         1 UNK         0.0000 
     59 H59         2.3890    1.1169   -3.4049 H         1 UNK         0.0000 
     60 H60         0.5999    3.1018   -0.2349 H         1 UNK         0.0000 
     61 H61        -0.3728   -0.4593   -2.3172 H         1 UNK         0.0000 
     62 H62         2.7748   -2.7285   -3.6747 H         1 UNK         0.0000 
     63 O63         2.2067   -4.2633   -5.3506 O.3       1 UNK         0.0000 
     64 C64         1.9193   -5.2833   -6.3605 C.3       1 UNK         0.0000 
     65 C65         1.7316   -6.6428   -5.6939 C.3       1 UNK         0.0000 
     66 H66         1.6716   -7.4132   -6.4682 H         1 UNK         0.0000 
     67 H67         2.5886   -6.8681   -5.0520 H         1 UNK         0.0000 
     68 H68         0.8187   -6.6712   -5.0983 H         1 UNK         0.0000 
     69 C69         0.7098   -4.8706   -7.1937 C.3       1 UNK         0.0000 
     70 H70        -0.2067   -4.8940   -6.6031 H         1 UNK         0.0000 
     71 H71         0.8556   -3.8629   -7.5944 H         1 UNK         0.0000 
     72 H72         0.6051   -5.5619   -8.0349 H         1 UNK         0.0000 
     73 C73         3.1833   -5.2753   -7.2125 C.3       1 UNK         0.0000 
     74 H74         3.3393   -4.2874   -7.6549 H         1 UNK         0.0000 
     75 H75         4.0554   -5.5318   -6.6048 H         1 UNK         0.0000 
     76 H76         3.0894   -6.0085   -8.0175 H         1 UNK         0.0000 
@<TRIPOS>BOND
     1    1   60 1    
     2    1   23 1    
     3    1   33 am   BACKBONE|DICT|INTERRES
     4    2   31 2    
     5    3    9 ar   
     6    3    6 ar   
     7    3   39 1    
     8    4   36 1    
     9    4   32 am   BACKBONE|DICT|INTERRES
    10    4   61 1    
    11    5   32 2    
    12    6   11 ar   
    13    6   40 1    
    14    7   62 1    
    15    7   34 am   BACKBONE|DICT|INTERRES
    16    7   35 1    
    17    8   33 2    
    18    9   13 ar   
    19    9   41 1    
    20   10   34 2    
    21   11   27 ar   
    22   11   42 1    
    23   12   29 1    
    24   12   30 1    
    25   13   43 1    
    26   13   27 ar   
    27   14   44 1    
    28   14   18 ar   
    29   14   26 ar   
    30   15   26 ar   
    31   15   19 ar   
    32   15   45 1    
    33   16   20 ar   
    34   16   28 ar   
    35   16   46 1    
    36   17   21 ar   
    37   17   47 1    
    38   17   28 ar   
    39   18   48 1    
    40   18   29 ar   
    41   19   29 ar   
    42   19   49 1    
    43   20   30 ar   
    44   20   50 1    
    45   21   51 1    
    46   21   30 ar   
    47   22   52 1    
    48   22   26 1    
    49   22   35 1    
    50   22   53 1    
    51   23   55 1    
    52   23   31 1    
    53   23   54 1    
    54   24   27 1    
    55   24   57 1    
    56   24   25 1    
    57   24   56 1    
    58   25   36 1    
    59   25   59 1    
    60   25   58 1    
    61   28   31 1    
    62   32   35 1    
    63   33   36 1    
    64   34   63 1    
    65   35   37 1    
    66   36   38 1    
    67   63   64 1    
    68   64   65 1    
    69   64   73 1    
    70   64   69 1    
    71   65   67 1    
    72   65   66 1    
    73   65   68 1    
    74   69   70 1    
    75   69   71 1    
    76   69   72 1    
    77   73   75 1    
    78   73   74 1    
    79   73   76 1    
@<TRIPOS>SUBSTRUCTURE
     1 UNK         1 GROUP             0       ****    0 ROOT    
@<TRIPOS>MOLECULE
Cpd4-6
76   79    1
SMALL
USER_CHARGES


@<TRIPOS>ATOM
      1 N1         -0.2257    3.0462   -0.7256 N.am      1 UNK         0.0000 
      2 O2         -3.1426    4.3264    1.0313 O.2       1 UNK         0.0000 
      3 C3          4.2700    5.5175   -1.2646 C.ar      1 UNK         0.0000 
      4 N4          1.5637   -0.0046   -1.2589 N.am      1 UNK         0.0000 
      5 O5          0.9128   -1.2473   -3.0720 O.2       1 UNK         0.0000 
      6 C6          4.6965    4.3427   -1.8870 C.ar      1 UNK         0.0000 
      7 N7          3.3419   -1.9321   -0.4871 N.am      1 UNK         0.0000 
      8 O8         -1.1673    1.1317   -1.4997 O.2       1 UNK         0.0000 
      9 C9          2.9392    5.9130   -1.3850 C.ar      1 UNK         0.0000 
     10 O10         4.7361   -0.8113   -1.8912 O.2       1 UNK         0.0000 
     11 C11         3.7973    3.5683   -2.6178 C.ar      1 UNK         0.0000 
     12 O12        -1.5726   -1.5079    3.1068 O.3       1 UNK         0.0000 
     13 C13         2.0421    5.1338   -2.1190 C.ar      1 UNK         0.0000 
     14 C14         1.0395   -3.3885    1.3431 C.ar      1 UNK         0.0000 
     15 C15        -0.5786   -2.5924   -0.2494 C.ar      1 UNK         0.0000 
     16 C16        -0.7339    1.8471    1.9290 C.ar      1 UNK         0.0000 
     17 C17        -3.1414    1.5990    1.9918 C.ar      1 UNK         0.0000 
     18 C18         0.2765   -2.8703    2.3940 C.ar      1 UNK         0.0000 
     19 C19        -1.3539   -2.0869    0.7826 C.ar      1 UNK         0.0000 
     20 C20        -0.5947    0.6007    2.5200 C.ar      1 UNK         0.0000 
     21 C21        -3.0086    0.3351    2.5633 C.ar      1 UNK         0.0000 
     22 C22         1.5729   -3.5209   -1.1394 C.3       1 UNK         0.0000 
     23 C23        -1.4629    3.7636   -0.5214 C.3       1 UNK         0.0000 
     24 C24         1.4733    3.1078   -3.5298 C.3       1 UNK         0.0000 
     25 C25         1.4823    1.6160   -3.1637 C.3       1 UNK         0.0000 
     26 C26         0.6532   -3.2057    0.0120 C.ar      1 UNK         0.0000 
     27 C27         2.4549    3.9512   -2.7427 C.ar      1 UNK         0.0000 
     28 C28        -2.0107    2.3299    1.6112 C.ar      1 UNK         0.0000 
     29 C29        -0.8894   -2.1802    2.0951 C.ar      1 UNK         0.0000 
     30 C30        -1.7309   -0.1743    2.7601 C.ar      1 UNK         0.0000 
     31 C31        -2.2388    3.5481    0.7849 C.2       1 UNK         0.0000 
     32 C32         1.5439   -1.1195   -2.0275 C.2       1 UNK         0.0000 
     33 C33        -0.1688    1.8058   -1.2759 C.2       1 UNK         0.0000 
     34 C34         4.4591   -1.2043   -0.7685 C.2       1 UNK         0.0000 
     35 C35         2.4212   -2.2969   -1.5417 C.3       1 UNK         0.0000 
     36 C36         1.2482    1.3615   -1.6642 C.3       1 UNK         0.0000 
     37 H37         3.0086   -2.5647   -2.4260 H         1 UNK         0.0000 
     38 H38         1.9607    1.9858   -1.1125 H         1 UNK         0.0000 
     39 H39         4.9702    6.1184   -0.6932 H         1 UNK         0.0000 
     40 H40         5.7326    4.0284   -1.8024 H         1 UNK         0.0000 
     41 H41         2.5954    6.8261   -0.9089 H         1 UNK         0.0000 
     42 H42         4.1457    2.6563   -3.0968 H         1 UNK         0.0000 
     43 H43         1.0059    5.4522   -2.2157 H         1 UNK         0.0000 
     44 H44         1.9649   -3.9131    1.5710 H         1 UNK         0.0000 
     45 H45        -0.9096   -2.4721   -1.2778 H         1 UNK         0.0000 
     46 H46         0.1501    2.4315    1.7038 H         1 UNK         0.0000 
     47 H47        -4.1276    1.9939    1.7683 H         1 UNK         0.0000 
     48 H48         0.6057   -2.9532    3.4246 H         1 UNK         0.0000 
     49 H49        -2.2831   -1.5663    0.5731 H         1 UNK         0.0000 
     50 H50         0.3879    0.1889    2.7284 H         1 UNK         0.0000 
     51 H51        -3.8737   -0.2822    2.7805 H         1 UNK         0.0000 
     52 H52         2.2580   -4.3374   -0.8930 H         1 UNK         0.0000 
     53 H53         0.9950   -3.8174   -2.0186 H         1 UNK         0.0000 
     54 H54        -2.1684    3.4721   -1.3091 H         1 UNK         0.0000 
     55 H55        -1.2782    4.8354   -0.6204 H         1 UNK         0.0000 
     56 H56         1.7045    3.1844   -4.5984 H         1 UNK         0.0000 
     57 H57         0.4657    3.5204   -3.4045 H         1 UNK         0.0000 
     58 H58         0.7269    1.0906   -3.7501 H         1 UNK         0.0000 
     59 H59         2.4498    1.1703   -3.4191 H         1 UNK         0.0000 
     60 H60         0.6402    3.5458   -0.5673 H         1 UNK         0.0000 
     61 H61         2.1004   -0.0829   -0.4052 H         1 UNK         0.0000 
     62 H62         3.1757   -2.2139    0.4704 H         1 UNK         0.0000 
     63 O63         5.1682   -0.9809    0.3459 O.3       1 UNK         0.0000 
     64 C64         6.3496   -0.1142    0.3231 C.3       1 UNK         0.0000 
     65 C65         5.9633    1.2827   -0.1554 C.3       1 UNK         0.0000 
     66 H66         6.8058    1.9613    0.0082 H         1 UNK         0.0000 
     67 H67         5.7117    1.2854   -1.2167 H         1 UNK         0.0000 
     68 H68         5.1077    1.6561    0.4170 H         1 UNK         0.0000 
     69 C69         6.7690   -0.0827    1.7879 C.3       1 UNK         0.0000 
     70 H70         5.9713    0.3397    2.4054 H         1 UNK         0.0000 
     71 H71         6.9932   -1.0926    2.1423 H         1 UNK         0.0000 
     72 H72         7.6639    0.5344    1.9010 H         1 UNK         0.0000 
     73 C73         7.4415   -0.7435   -0.5360 C.3       1 UNK         0.0000 
     74 H74         7.6444   -1.7640   -0.1976 H         1 UNK         0.0000 
     75 H75         7.1561   -0.7629   -1.5882 H         1 UNK         0.0000 
     76 H76         8.3596   -0.1580   -0.4302 H         1 UNK         0.0000 
@<TRIPOS>BOND
     1    1   33 am   BACKBONE|DICT|INTERRES
     2    1   23 1    
     3    1   60 1    
     4    2   31 2    
     5    3    9 ar   
     6    3    6 ar   
     7    3   39 1    
     8    4   36 1    
     9    4   32 am   BACKBONE|DICT|INTERRES
    10    4   61 1    
    11    5   32 2    
    12    6   11 ar   
    13    6   40 1    
    14    7   35 1    
    15    7   34 am   BACKBONE|DICT|INTERRES
    16    7   62 1    
    17    8   33 2    
    18    9   13 ar   
    19    9   41 1    
    20   10   34 2    
    21   11   27 ar   
    22   11   42 1    
    23   12   29 1    
    24   12   30 1    
    25   13   43 1    
    26   13   27 ar   
    27   14   26 ar   
    28   14   18 ar   
    29   14   44 1    
    30   15   45 1    
    31   15   19 ar   
    32   15   26 ar   
    33   16   28 ar   
    34   16   20 ar   
    35   16   46 1    
    36   17   47 1    
    37   17   21 ar   
    38   17   28 ar   
    39   18   29 ar   
    40   18   48 1    
    41   19   49 1    
    42   19   29 ar   
    43   20   30 ar   
    44   20   50 1    
    45   21   51 1    
    46   21   30 ar   
    47   22   53 1    
    48   22   26 1    
    49   22   35 1    
    50   22   52 1    
    51   23   54 1    
    52   23   31 1    
    53   23   55 1    
    54   24   57 1    
    55   24   25 1    
    56   24   56 1    
    57   24   27 1    
    58   25   59 1    
    59   25   58 1    
    60   25   36 1    
    61   28   31 1    
    62   32   35 1    
    63   33   36 1    
    64   34   63 1    
    65   35   37 1    
    66   36   38 1    
    67   63   64 1    
    68   64   65 1    
    69   64   73 1    
    70   64   69 1    
    71   65   67 1    
    72   65   66 1    
    73   65   68 1    
    74   69   70 1    
    75   69   71 1    
    76   69   72 1    
    77   73   75 1    
    78   73   74 1    
    79   73   76 1    
@<TRIPOS>SUBSTRUCTURE
     1 UNK         1 GROUP             0       ****    0 ROOT    
@<TRIPOS>MOLECULE
Cpd4-7
76   79    1
SMALL
USER_CHARGES


@<TRIPOS>ATOM
      1 N1          0.1729    3.0450   -0.2720 N.am      1 UNK         0.0000 
      2 O2         -3.1743    3.9840    0.4232 O.2       1 UNK         0.0000 
      3 C3         -0.4194    6.6405   -2.7221 C.ar      1 UNK         0.0000 
      4 N4          0.6203   -0.1092   -1.8539 N.am      1 UNK         0.0000 
      5 O5          2.6829   -1.0379   -1.6641 O.2       1 UNK         0.0000 
      6 C6         -0.7467    5.5475   -3.5236 C.ar      1 UNK         0.0000 
      7 N7          1.4770   -2.8352   -3.6812 N.am      1 UNK         0.0000 
      8 O8         -1.2318    1.8986   -1.6187 O.2       1 UNK         0.0000 
      9 C9          0.7556    6.6082   -1.9699 C.ar      1 UNK         0.0000 
     10 O10         0.1421   -1.3829   -4.8217 O.2       1 UNK         0.0000 
     11 C11         0.0951    4.4345   -3.5778 C.ar      1 UNK         0.0000 
     12 O12        -1.4588   -1.5199    3.1934 O.3       1 UNK         0.0000 
     13 C13         1.5913    5.4937   -2.0261 C.ar      1 UNK         0.0000 
     14 C14         1.2493   -2.6459    0.9793 C.ar      1 UNK         0.0000 
     15 C15        -0.8610   -3.3851    0.0888 C.ar      1 UNK         0.0000 
     16 C16        -0.8717    1.9792    2.3005 C.ar      1 UNK         0.0000 
     17 C17        -3.0317    1.2934    1.4524 C.ar      1 UNK         0.0000 
     18 C18         0.6019   -2.1322    2.1021 C.ar      1 UNK         0.0000 
     19 C19        -1.5212   -2.8718    1.2019 C.ar      1 UNK         0.0000 
     20 C20        -0.7303    0.7547    2.9420 C.ar      1 UNK         0.0000 
     21 C21        -2.8859    0.0545    2.0680 C.ar      1 UNK         0.0000 
     22 C22         1.1850   -3.5873   -1.3670 C.3       1 UNK         0.0000 
     23 C23        -0.8254    4.0400    0.0628 C.3       1 UNK         0.0000 
     24 C24         2.2422    3.2220   -2.9181 C.3       1 UNK         0.0000 
     25 C25         1.6351    1.8150   -2.9868 C.3       1 UNK         0.0000 
     26 C26         0.5231   -3.2387   -0.0569 C.ar      1 UNK         0.0000 
     27 C27         1.2779    4.3917   -2.8316 C.ar      1 UNK         0.0000 
     28 C28        -2.0030    2.2376    1.5191 C.ar      1 UNK         0.0000 
     29 C29        -0.7846   -2.2070    2.1776 C.ar      1 UNK         0.0000 
     30 C30        -1.7085   -0.2208    2.7598 C.ar      1 UNK         0.0000 
     31 C31        -2.1053    3.4566    0.6681 C.2       1 UNK         0.0000 
     32 C32         1.4856   -1.1415   -1.9287 C.2       1 UNK         0.0000 
     33 C33        -0.0993    2.0833   -1.1736 C.2       1 UNK         0.0000 
     34 C34         1.0950   -2.1471   -4.7965 C.2       1 UNK         0.0000 
     35 C35         0.9000   -2.4848   -2.3962 C.3       1 UNK         0.0000 
     36 C36         1.0832    1.2546   -1.6587 C.3       1 UNK         0.0000 
     37 H37        -0.1805   -2.3881   -2.5368 H         1 UNK         0.0000 
     38 H38         1.8783    1.2388   -0.9061 H         1 UNK         0.0000 
     39 H39        -1.0749    7.5045   -2.6791 H         1 UNK         0.0000 
     40 H40        -1.6598    5.5573   -4.1110 H         1 UNK         0.0000 
     41 H41         1.0206    7.4488   -1.3357 H         1 UNK         0.0000 
     42 H42        -0.1798    3.5976   -4.2134 H         1 UNK         0.0000 
     43 H43         2.5022    5.4751   -1.4318 H         1 UNK         0.0000 
     44 H44         2.3272   -2.5442    0.8877 H         1 UNK         0.0000 
     45 H45        -1.4359   -3.8710   -0.6957 H         1 UNK         0.0000 
     46 H46        -0.0854    2.7216    2.3938 H         1 UNK         0.0000 
     47 H47        -3.9149    1.5132    0.8607 H         1 UNK         0.0000 
     48 H48         1.1597   -1.6357    2.8893 H         1 UNK         0.0000 
     49 H49        -2.5999   -2.9430    1.2963 H         1 UNK         0.0000 
     50 H50         0.1547    0.5281    3.5264 H         1 UNK         0.0000 
     51 H51        -3.6440   -0.7151    1.9694 H         1 UNK         0.0000 
     52 H52         2.2680   -3.6817   -1.2376 H         1 UNK         0.0000 
     53 H53         0.8004   -4.5300   -1.7680 H         1 UNK         0.0000 
     54 H54        -1.1234    4.6023   -0.8295 H         1 UNK         0.0000 
     55 H55        -0.3846    4.7421    0.7768 H         1 UNK         0.0000 
     56 H56         2.9447    3.2756   -2.0771 H         1 UNK         0.0000 
     57 H57         2.8509    3.3564   -3.8206 H         1 UNK         0.0000 
     58 H58         0.8350    1.7638   -3.7335 H         1 UNK         0.0000 
     59 H59         2.4121    1.1147   -3.3095 H         1 UNK         0.0000 
     60 H60         1.1220    3.1710    0.0505 H         1 UNK         0.0000 
     61 H61        -0.3181   -0.2177   -2.2236 H         1 UNK         0.0000 
     62 H62         2.3937   -3.2646   -3.6960 H         1 UNK         0.0000 
     63 O63         1.8889   -2.4521   -5.8312 O.3       1 UNK         0.0000 
     64 C64         1.6875   -1.8353   -7.1442 C.3       1 UNK         0.0000 
     65 C65         1.8557   -0.3219   -7.0431 C.3       1 UNK         0.0000 
     66 H66         1.8668    0.1018   -8.0514 H         1 UNK         0.0000 
     67 H67         1.0411    0.1339   -6.4793 H         1 UNK         0.0000 
     68 H68         2.8076   -0.0811   -6.5595 H         1 UNK         0.0000 
     69 C69         2.8112   -2.4440   -7.9748 C.3       1 UNK         0.0000 
     70 H70         3.7844   -2.1878   -7.5473 H         1 UNK         0.0000 
     71 H71         2.7149   -3.5327   -8.0075 H         1 UNK         0.0000 
     72 H72         2.7644   -2.0576   -8.9962 H         1 UNK         0.0000 
     73 C73         0.3274   -2.2351   -7.7073 C.3       1 UNK         0.0000 
     74 H74         0.2235   -3.3243   -7.7013 H         1 UNK         0.0000 
     75 H75        -0.4867   -1.7925   -7.1325 H         1 UNK         0.0000 
     76 H76         0.2562   -1.8895   -8.7428 H         1 UNK         0.0000 
@<TRIPOS>BOND
     1    1   33 am   BACKBONE|DICT|INTERRES
     2    1   23 1    
     3    1   60 1    
     4    2   31 2    
     5    3   39 1    
     6    3    6 ar   
     7    3    9 ar   
     8    4   61 1    
     9    4   32 am   BACKBONE|DICT|INTERRES
    10    4   36 1    
    11    5   32 2    
    12    6   40 1    
    13    6   11 ar   
    14    7   35 1    
    15    7   34 am   BACKBONE|DICT|INTERRES
    16    7   62 1    
    17    8   33 2    
    18    9   13 ar   
    19    9   41 1    
    20   10   34 2    
    21   11   42 1    
    22   11   27 ar   
    23   12   30 1    
    24   12   29 1    
    25   13   27 ar   
    26   13   43 1    
    27   14   18 ar   
    28   14   26 ar   
    29   14   44 1    
    30   15   19 ar   
    31   15   45 1    
    32   15   26 ar   
    33   16   28 ar   
    34   16   20 ar   
    35   16   46 1    
    36   17   47 1    
    37   17   21 ar   
    38   17   28 ar   
    39   18   29 ar   
    40   18   48 1    
    41   19   49 1    
    42   19   29 ar   
    43   20   30 ar   
    44   20   50 1    
    45   21   51 1    
    46   21   30 ar   
    47   22   26 1    
    48   22   35 1    
    49   22   53 1    
    50   22   52 1    
    51   23   54 1    
    52   23   31 1    
    53   23   55 1    
    54   24   25 1    
    55   24   27 1    
    56   24   56 1    
    57   24   57 1    
    58   25   36 1    
    59   25   58 1    
    60   25   59 1    
    61   28   31 1    
    62   32   35 1    
    63   33   36 1    
    64   34   63 1    
    65   35   37 1    
    66   36   38 1    
    67   63   64 1    
    68   64   73 1    
    69   64   65 1    
    70   64   69 1    
    71   65   66 1    
    72   65   67 1    
    73   65   68 1    
    74   69   71 1    
    75   69   72 1    
    76   69   70 1    
    77   73   74 1    
    78   73   76 1    
    79   73   75 1    
@<TRIPOS>SUBSTRUCTURE
     1 UNK         1 GROUP             0       ****    0 ROOT    
@<TRIPOS>MOLECULE
Cpd4-8
76   79    1
SMALL
USER_CHARGES


@<TRIPOS>ATOM
      1 N1         -0.6909    3.0465   -1.1723 N.am      1 UNK         0.0000 
      2 O2         -1.2886    4.5496    1.5015 O.2       1 UNK         0.0000 
      3 C3          5.2551    3.4943   -3.1729 C.ar      1 UNK         0.0000 
      4 N4          1.5068    0.2935   -1.5999 N.am      1 UNK         0.0000 
      5 O5          0.6295   -1.4305   -2.8283 O.2       1 UNK         0.0000 
      6 C6          4.2370    4.0368   -3.9562 C.ar      1 UNK         0.0000 
      7 N7          3.2179   -1.3296   -0.2966 N.am      1 UNK         0.0000 
      8 O8         -1.3585    0.8812   -1.3546 O.2       1 UNK         0.0000 
      9 C9          5.2075    2.1474   -2.8206 C.ar      1 UNK         0.0000 
     10 O10         5.2404   -1.3547   -1.3667 O.2       1 UNK         0.0000 
     11 C11         3.1798    3.2358   -4.3803 C.ar      1 UNK         0.0000 
     12 O12        -1.8213   -1.6464    3.0277 O.3       1 UNK         0.0000 
     13 C13         4.1467    1.3492   -3.2453 C.ar      1 UNK         0.0000 
     14 C14         1.2033   -3.0403    1.4814 C.ar      1 UNK         0.0000 
     15 C15        -0.5070   -2.8110   -0.1935 C.ar      1 UNK         0.0000 
     16 C16        -2.9507    1.3922    1.3445 C.ar      1 UNK         0.0000 
     17 C17        -0.9258    1.8718    2.5779 C.ar      1 UNK         0.0000 
     18 C18         0.3099   -2.6123    2.4650 C.ar      1 UNK         0.0000 
     19 C19        -1.4106   -2.4064    0.7781 C.ar      1 UNK         0.0000 
     20 C20        -2.9921    0.1204    1.8997 C.ar      1 UNK         0.0000 
     21 C21        -0.9259    0.5797    3.0881 C.ar      1 UNK         0.0000 
     22 C22         1.8372   -3.2831   -0.9636 C.3       1 UNK         0.0000 
     23 C23        -1.9191    3.5477   -0.5749 C.3       1 UNK         0.0000 
     24 C24         1.9450    1.0324   -4.4518 C.3       1 UNK         0.0000 
     25 C25         0.6511    1.3795   -3.6981 C.3       1 UNK         0.0000 
     26 C26         0.8248   -3.0861    0.1356 C.ar      1 UNK         0.0000 
     27 C27         3.1205    1.8822   -4.0311 C.ar      1 UNK         0.0000 
     28 C28        -1.9002    2.2604    1.6540 C.ar      1 UNK         0.0000 
     29 C29        -0.9787   -2.2543    2.0933 C.ar      1 UNK         0.0000 
     30 C30        -1.9349   -0.2991    2.7022 C.ar      1 UNK         0.0000 
     31 C31        -1.7233    3.5607    0.9456 C.2       1 UNK         0.0000 
     32 C32         1.4159   -0.9938   -1.9955 C.2       1 UNK         0.0000 
     33 C33        -0.5054    1.7416   -1.5074 C.2       1 UNK         0.0000 
     34 C34         4.5806   -1.2045   -0.3532 C.2       1 UNK         0.0000 
     35 C35         2.4707   -1.9366   -1.3785 C.3       1 UNK         0.0000 
     36 C36         0.8461    1.4544   -2.1767 C.3       1 UNK         0.0000 
     37 H37         3.1920   -2.1239   -2.1814 H         1 UNK         0.0000 
     38 H38         1.5235    2.2918   -1.9777 H         1 UNK         0.0000 
     39 H39         6.0803    4.1171   -2.8430 H         1 UNK         0.0000 
     40 H40         4.2684    5.0843   -4.2396 H         1 UNK         0.0000 
     41 H41         5.9957    1.7117   -2.2147 H         1 UNK         0.0000 
     42 H42         2.3903    3.6629   -4.9946 H         1 UNK         0.0000 
     43 H43         4.1238    0.2988   -2.9618 H         1 UNK         0.0000 
     44 H44         2.2193   -3.3051    1.7645 H         1 UNK         0.0000 
     45 H45        -0.8182   -2.8639   -1.2319 H         1 UNK         0.0000 
     46 H46        -3.7300    1.6948    0.6530 H         1 UNK         0.0000 
     47 H47        -0.1316    2.5664    2.8325 H         1 UNK         0.0000 
     48 H48         0.6157   -2.5149    3.5013 H         1 UNK         0.0000 
     49 H49        -2.4306   -2.1527    0.5123 H         1 UNK         0.0000 
     50 H50        -3.7892   -0.5734    1.6579 H         1 UNK         0.0000 
     51 H51        -0.1278    0.2250    3.7317 H         1 UNK         0.0000 
     52 H52         2.6450   -3.9489   -0.6474 H         1 UNK         0.0000 
     53 H53         1.3619   -3.7111   -1.8487 H         1 UNK         0.0000 
     54 H54        -2.7335    2.8937   -0.8873 H         1 UNK         0.0000 
     55 H55        -2.1004    4.5669   -0.9185 H         1 UNK         0.0000 
     56 H56         2.1788   -0.0244   -4.2951 H         1 UNK         0.0000 
     57 H57         1.7556    1.1605   -5.5229 H         1 UNK         0.0000 
     58 H58         0.2886    2.3649   -4.0135 H         1 UNK         0.0000 
     59 H59        -0.1191    0.6434   -3.9329 H         1 UNK         0.0000 
     60 H60         0.0854    3.6885   -1.2444 H         1 UNK         0.0000 
     61 H61         2.2258    0.4847   -0.9156 H         1 UNK         0.0000 
     62 H62         2.8051   -1.3243    0.6286 H         1 UNK         0.0000 
     63 O63         5.0495   -0.8712    0.8554 O.3       1 UNK         0.0000 
     64 C64         6.4846   -0.7148    1.0855 C.3       1 UNK         0.0000 
     65 C65         7.0487    0.3975    0.2077 C.3       1 UNK         0.0000 
     66 H66         8.0635    0.6339    0.5390 H         1 UNK         0.0000 
     67 H67         7.0803    0.0945   -0.8388 H         1 UNK         0.0000 
     68 H68         6.4366    1.2990    0.3064 H         1 UNK         0.0000 
     69 C69         6.5456   -0.3191    2.5557 C.3       1 UNK         0.0000 
     70 H70         6.0145    0.6221    2.7196 H         1 UNK         0.0000 
     71 H71         6.0899   -1.0937    3.1775 H         1 UNK         0.0000 
     72 H72         7.5869   -0.1917    2.8608 H         1 UNK         0.0000 
     73 C73         7.1889   -2.0473    0.8548 C.3       1 UNK         0.0000 
     74 H74         6.7331   -2.8250    1.4740 H         1 UNK         0.0000 
     75 H75         7.1337   -2.3429   -0.1933 H         1 UNK         0.0000 
     76 H76         8.2402   -1.9525    1.1394 H         1 UNK         0.0000 
@<TRIPOS>BOND
     1    1   23 1    
     2    1   60 1    
     3    1   33 am   BACKBONE|DICT|INTERRES
     4    2   31 2    
     5    3   39 1    
     6    3    6 ar   
     7    3    9 ar   
     8    4   36 1    
     9    4   61 1    
    10    4   32 am   BACKBONE|DICT|INTERRES
    11    5   32 2    
    12    6   40 1    
    13    6   11 ar   
    14    7   34 am   BACKBONE|DICT|INTERRES
    15    7   62 1    
    16    7   35 1    
    17    8   33 2    
    18    9   41 1    
    19    9   13 ar   
    20   10   34 2    
    21   11   27 ar   
    22   11   42 1    
    23   12   30 1    
    24   12   29 1    
    25   13   27 ar   
    26   13   43 1    
    27   14   44 1    
    28   14   18 ar   
    29   14   26 ar   
    30   15   26 ar   
    31   15   19 ar   
    32   15   45 1    
    33   16   28 ar   
    34   16   20 ar   
    35   16   46 1    
    36   17   47 1    
    37   17   21 ar   
    38   17   28 ar   
    39   18   48 1    
    40   18   29 ar   
    41   19   29 ar   
    42   19   49 1    
    43   20   30 ar   
    44   20   50 1    
    45   21   51 1    
    46   21   30 ar   
    47   22   52 1    
    48   22   26 1    
    49   22   35 1    
    50   22   53 1    
    51   23   55 1    
    52   23   31 1    
    53   23   54 1    
    54   24   25 1    
    55   24   27 1    
    56   24   56 1    
    57   24   57 1    
    58   25   58 1    
    59   25   36 1    
    60   25   59 1    
    61   28   31 1    
    62   32   35 1    
    63   33   36 1    
    64   34   63 1    
    65   35   37 1    
    66   36   38 1    
    67   63   64 1    
    68   64   65 1    
    69   64   69 1    
    70   64   73 1    
    71   65   68 1    
    72   65   66 1    
    73   65   67 1    
    74   69   70 1    
    75   69   72 1    
    76   69   71 1    
    77   73   76 1    
    78   73   74 1    
    79   73   75 1    
@<TRIPOS>SUBSTRUCTURE
     1 UNK         1 GROUP             0       ****    0 ROOT    
@<TRIPOS>MOLECULE
Cpd4-9-MRC
76   79    1
SMALL
USER_CHARGES


@<TRIPOS>ATOM
      1 N1         -0.2532    3.0549   -0.7875 N.am      1 UNK         0.0000 
      2 O2         -3.0518    4.3742    1.1249 O.2       1 UNK         0.0000 
      3 C3          1.3014    3.1381   -8.1896 C.ar      1 UNK         0.0000 
      4 N4          1.6073    0.1014   -1.3792 N.am      1 UNK         0.0000 
      5 O5          0.8795   -1.3552   -2.9960 O.2       1 UNK         0.0000 
      6 C6          0.0692    2.8454   -7.6036 C.ar      1 UNK         0.0000 
      7 N7          3.2475   -1.7756   -0.2780 N.am      1 UNK         0.0000 
      8 O8         -1.2106    1.1220   -1.4884 O.2       1 UNK         0.0000 
      9 C9          2.4096    3.3830   -7.3782 C.ar      1 UNK         0.0000 
     10 O10         5.0735   -1.1647   -1.5025 O.2       1 UNK         0.0000 
     11 C11        -0.0513    2.7989   -6.2149 C.ar      1 UNK         0.0000 
     12 O12        -1.6258   -1.5348    3.0869 O.3       1 UNK         0.0000 
     13 C13         2.2840    3.3347   -5.9899 C.ar      1 UNK         0.0000 
     14 C14         1.0212   -3.4165    1.3809 C.ar      1 UNK         0.0000 
     15 C15        -0.5545   -2.6034   -0.2469 C.ar      1 UNK         0.0000 
     16 C16        -3.1171    1.6360    2.0500 C.ar      1 UNK         0.0000 
     17 C17        -0.7075    1.7903    1.8762 C.ar      1 UNK         0.0000 
     18 C18         0.2276   -2.9148    2.4175 C.ar      1 UNK         0.0000 
     19 C19        -1.3593   -2.1151    0.7709 C.ar      1 UNK         0.0000 
     20 C20        -3.0085    0.3630    2.6058 C.ar      1 UNK         0.0000 
     21 C21        -0.5908    0.5361    2.4544 C.ar      1 UNK         0.0000 
     22 C22         1.6470   -3.4761   -1.0788 C.3       1 UNK         0.0000 
     23 C23        -1.4898    3.7577   -0.5252 C.3       1 UNK         0.0000 
     24 C24         0.9305    2.9475   -3.8899 C.3       1 UNK         0.0000 
     25 C25         1.1664    1.5078   -3.4111 C.3       1 UNK         0.0000 
     26 C26         0.6748   -3.2111    0.0417 C.ar      1 UNK         0.0000 
     27 C27         1.0533    3.0438   -5.3918 C.ar      1 UNK         0.0000 
     28 C28        -1.9772    2.3260    1.6224 C.ar      1 UNK         0.0000 
     29 C29        -0.9274   -2.2184    2.0937 C.ar      1 UNK         0.0000 
     30 C30        -1.7442   -0.1967    2.7437 C.ar      1 UNK         0.0000 
     31 C31        -2.1952    3.5627    0.8223 C.2       1 UNK         0.0000 
     32 C32         1.5524   -1.0987   -2.0020 C.2       1 UNK         0.0000 
     33 C33        -0.2122    1.8183   -1.3471 C.2       1 UNK         0.0000 
     34 C34         4.5365   -1.3505   -0.4225 C.2       1 UNK         0.0000 
     35 C35         2.4582   -2.2043   -1.4127 C.3       1 UNK         0.0000 
     36 C36         1.1683    1.4019   -1.8780 C.3       1 UNK         0.0000 
     37 H37         3.1552   -2.4402   -2.2235 H         1 UNK         0.0000 
     38 H38         1.9114    2.1142   -1.5020 H         1 UNK         0.0000 
     39 H39         1.3962    3.1778   -9.2702 H         1 UNK         0.0000 
     40 H40        -0.7991    2.6563   -8.2275 H         1 UNK         0.0000 
     41 H41         3.3714    3.6145   -7.8256 H         1 UNK         0.0000 
     42 H42        -1.0141    2.5732   -5.7618 H         1 UNK         0.0000 
     43 H43         3.1500    3.5282   -5.3609 H         1 UNK         0.0000 
     44 H44         1.9459   -3.9347    1.6252 H         1 UNK         0.0000 
     45 H45        -0.8555   -2.4690   -1.2824 H         1 UNK         0.0000 
     46 H46        -4.0961    2.0713    1.8759 H         1 UNK         0.0000 
     47 H47         0.1876    2.3406    1.6125 H         1 UNK         0.0000 
     48 H48         0.5306   -3.0065    3.4553 H         1 UNK         0.0000 
     49 H49        -2.2819   -1.5894    0.5443 H         1 UNK         0.0000 
     50 H50        -3.8865   -0.2214    2.8590 H         1 UNK         0.0000 
     51 H51         0.3844    0.0868    2.6148 H         1 UNK         0.0000 
     52 H52         2.3552   -4.2657   -0.8128 H         1 UNK         0.0000 
     53 H53         1.1192   -3.7777   -1.9866 H         1 UNK         0.0000 
     54 H54        -2.2320    3.4366   -1.2672 H         1 UNK         0.0000 
     55 H55        -1.3274    4.8287   -0.6577 H         1 UNK         0.0000 
     56 H56        -0.0681    3.2829   -3.5858 H         1 UNK         0.0000 
     57 H57         1.6565    3.6204   -3.4171 H         1 UNK         0.0000 
     58 H58         0.4041    0.8459   -3.8260 H         1 UNK         0.0000 
     59 H59         2.1394    1.1558   -3.7725 H         1 UNK         0.0000 
     60 H60         0.6075    3.5758   -0.6942 H         1 UNK         0.0000 
     61 H61         2.1968    0.1283   -0.5573 H         1 UNK         0.0000 
     62 H62         2.9174   -1.9614    0.6615 H         1 UNK         0.0000 
     63 O63         5.0937   -1.1570    0.7807 O.3       1 UNK         0.0000 
     64 C64         6.4551   -0.6315    0.9089 C.3       1 UNK         0.0000 
     65 C65         7.4530   -1.6041    0.2883 C.3       1 UNK         0.0000 
     66 H66         8.4675   -1.2729    0.5282 H         1 UNK         0.0000 
     67 H67         7.3115   -2.6053    0.7064 H         1 UNK         0.0000 
     68 H68         7.3444   -1.6481   -0.7958 H         1 UNK         0.0000 
     69 C69         6.5376    0.7618    0.2932 C.3       1 UNK         0.0000 
     70 H70         6.4294    0.7260   -0.7913 H         1 UNK         0.0000 
     71 H71         5.7585    1.4054    0.7132 H         1 UNK         0.0000 
     72 H72         7.5104    1.1995    0.5349 H         1 UNK         0.0000 
     73 C73         6.6441   -0.5613    2.4197 C.3       1 UNK         0.0000 
     74 H74         5.9010    0.1045    2.8674 H         1 UNK         0.0000 
     75 H75         6.5416   -1.5552    2.8640 H         1 UNK         0.0000 
     76 H76         7.6414   -0.1769    2.6479 H         1 UNK         0.0000 
@<TRIPOS>BOND
     1    1   33 am   BACKBONE|DICT|INTERRES
     2    1   23 1    
     3    1   60 1    
     4    2   31 2    
     5    3   39 1    
     6    3    6 ar   
     7    3    9 ar   
     8    4   32 am   BACKBONE|DICT|INTERRES
     9    4   36 1    
    10    4   61 1    
    11    5   32 2    
    12    6   40 1    
    13    6   11 ar   
    14    7   35 1    
    15    7   34 am   BACKBONE|DICT|INTERRES
    16    7   62 1    
    17    8   33 2    
    18    9   13 ar   
    19    9   41 1    
    20   10   34 2    
    21   11   42 1    
    22   11   27 ar   
    23   12   29 1    
    24   12   30 1    
    25   13   27 ar   
    26   13   43 1    
    27   14   26 ar   
    28   14   18 ar   
    29   14   44 1    
    30   15   45 1    
    31   15   19 ar   
    32   15   26 ar   
    33   16   46 1    
    34   16   20 ar   
    35   16   28 ar   
    36   17   28 ar   
    37   17   21 ar   
    38   17   47 1    
    39   18   29 ar   
    40   18   48 1    
    41   19   49 1    
    42   19   29 ar   
    43   20   50 1    
    44   20   30 ar   
    45   21   30 ar   
    46   21   51 1    
    47   22   52 1    
    48   22   53 1    
    49   22   26 1    
    50   22   35 1    
    51   23   54 1    
    52   23   31 1    
    53   23   55 1    
    54   24   27 1    
    55   24   25 1    
    56   24   56 1    
    57   24   57 1    
    58   25   59 1    
    59   25   58 1    
    60   25   36 1    
    61   28   31 1    
    62   32   35 1    
    63   33   36 1    
    64   34   63 1    
    65   35   37 1    
    66   36   38 1    
    67   63   64 1    
    68   64   65 1    
    69   64   69 1    
    70   64   73 1    
    71   65   68 1    
    72   65   67 1    
    73   65   66 1    
    74   69   70 1    
    75   69   71 1    
    76   69   72 1    
    77   73   75 1    
    78   73   74 1    
    79   73   76 1    
@<TRIPOS>SUBSTRUCTURE
     1 UNK         1 GROUP             0       ****    0 ROOT    
@<TRIPOS>MOLECULE
Cpd4-10
76   79    1
SMALL
USER_CHARGES


@<TRIPOS>ATOM
      1 N1         -0.0756    2.8165   -0.4835 N.am      1 UNK         0.0000 
      2 O2         -2.3355    4.5182    1.5339 O.2       1 UNK         0.0000 
      3 C3          5.3475   -2.1753   -2.5330 C.ar      1 UNK         0.0000 
      4 N4          1.5736   -0.0044   -2.0268 N.am      1 UNK         0.0000 
      5 O5         -0.3851   -0.7376   -1.1582 O.2       1 UNK         0.0000 
      6 C6          5.1752   -1.2154   -3.5329 C.ar      1 UNK         0.0000 
      7 N7          1.8199   -2.3327   -3.4993 N.am      1 UNK         0.0000 
      8 O8         -0.4463    1.9550   -2.5559 O.2       1 UNK         0.0000 
      9 C9          5.1398   -1.8232   -1.1987 C.ar      1 UNK         0.0000 
     10 O10         0.2643   -1.3392   -4.8261 O.2       1 UNK         0.0000 
     11 C11         4.7955    0.0848   -3.1981 C.ar      1 UNK         0.0000 
     12 O12        -1.5703   -1.6674    3.0596 O.3       1 UNK         0.0000 
     13 C13         4.7540   -0.5235   -0.8692 C.ar      1 UNK         0.0000 
     14 C14         1.3981   -2.1783    0.9967 C.ar      1 UNK         0.0000 
     15 C15        -0.2966   -3.7489    0.3253 C.ar      1 UNK         0.0000 
     16 C16        -2.0296    1.9602    2.9067 C.ar      1 UNK         0.0000 
     17 C17        -2.1646    1.0407    0.6752 C.ar      1 UNK         0.0000 
     18 C18         0.6069   -1.7699    2.0638 C.ar      1 UNK         0.0000 
     19 C19        -1.1028   -3.3495    1.3927 C.ar      1 UNK         0.0000 
     20 C20        -1.9121    0.6766    3.4375 C.ar      1 UNK         0.0000 
     21 C21        -2.0949   -0.2386    1.1952 C.ar      1 UNK         0.0000 
     22 C22         1.6158   -3.2536   -1.2572 C.3       1 UNK         0.0000 
     23 C23        -1.2665    3.6409   -0.4124 C.3       1 UNK         0.0000 
     24 C24         4.1078    1.8399   -1.5066 C.3       1 UNK         0.0000 
     25 C25         2.6812    2.1802   -1.9712 C.3       1 UNK         0.0000 
     26 C26         0.9215   -3.1133    0.0724 C.ar      1 UNK         0.0000 
     27 C27         4.5739    0.4459   -1.8617 C.ar      1 UNK         0.0000 
     28 C28        -2.1006    2.1526    1.5212 C.ar      1 UNK         0.0000 
     29 C29        -0.6711   -2.3053    2.2005 C.ar      1 UNK         0.0000 
     30 C30        -1.8873   -0.4114    2.5653 C.ar      1 UNK         0.0000 
     31 C31        -1.9661    3.5160    0.9479 C.2       1 UNK         0.0000 
     32 C32         0.6392   -0.9516   -1.7972 C.2       1 UNK         0.0000 
     33 C33         0.2325    2.0214   -1.5390 C.2       1 UNK         0.0000 
     34 C34         1.4011   -1.7511   -4.6584 C.2       1 UNK         0.0000 
     35 C35         0.9537   -2.3594   -2.3396 C.3       1 UNK         0.0000 
     36 C36         1.5749    1.2904   -1.3749 C.3       1 UNK         0.0000 
     37 H37        -0.0164   -2.7847   -2.6152 H         1 UNK         0.0000 
     38 H38         1.7565    1.1477   -0.2984 H         1 UNK         0.0000 
     39 H39         5.6459   -3.1865   -2.7919 H         1 UNK         0.0000 
     40 H40         5.3351   -1.4797   -4.5737 H         1 UNK         0.0000 
     41 H41         5.2737   -2.5617   -0.4134 H         1 UNK         0.0000 
     42 H42         4.6689    0.8272   -3.9835 H         1 UNK         0.0000 
     43 H43         4.5883   -0.2559    0.1718 H         1 UNK         0.0000 
     44 H44         2.3631   -1.7036    0.8303 H         1 UNK         0.0000 
     45 H45        -0.6642   -4.5033   -0.3658 H         1 UNK         0.0000 
     46 H46        -1.9883    2.8255    3.5615 H         1 UNK         0.0000 
     47 H47        -2.2178    1.1599   -0.4031 H         1 UNK         0.0000 
     48 H48         0.9285   -0.9737    2.7290 H         1 UNK         0.0000 
     49 H49        -2.0943   -3.7669    1.5366 H         1 UNK         0.0000 
     50 H50        -1.7670    0.5173    4.5006 H         1 UNK         0.0000 
     51 H51        -2.0748   -1.0860    0.5226 H         1 UNK         0.0000 
     52 H52         2.6654   -2.9536   -1.1572 H         1 UNK         0.0000 
     53 H53         1.5925   -4.2836   -1.6262 H         1 UNK         0.0000 
     54 H54        -1.9431    3.3160   -1.2102 H         1 UNK         0.0000 
     55 H55        -1.0394    4.6993   -0.5662 H         1 UNK         0.0000 
     56 H56         4.7842    2.5738   -1.9583 H         1 UNK         0.0000 
     57 H57         4.1679    1.9754   -0.4215 H         1 UNK         0.0000 
     58 H58         2.4761    3.2171   -1.6879 H         1 UNK         0.0000 
     59 H59         2.6061    2.1292   -3.0646 H         1 UNK         0.0000 
     60 H60         0.5451    2.8148    0.3155 H         1 UNK         0.0000 
     61 H61         2.3923   -0.2637   -2.5618 H         1 UNK         0.0000 
     62 H62         2.8005   -2.5738   -3.4110 H         1 UNK         0.0000 
     63 O63         2.4022   -1.7011   -5.5477 O.3       1 UNK         0.0000 
     64 C64         2.2435   -0.9840   -6.8143 C.3       1 UNK         0.0000 
     65 C65         1.2075   -1.6862   -7.6858 C.3       1 UNK         0.0000 
     66 H66         1.1962   -1.2179   -8.6743 H         1 UNK         0.0000 
     67 H67         1.4719   -2.7409   -7.8081 H         1 UNK         0.0000 
     68 H68         0.2105   -1.6129   -7.2501 H         1 UNK         0.0000 
     69 C69         1.8903    0.4763   -6.5461 C.3       1 UNK         0.0000 
     70 H70         0.8814    0.5789   -6.1453 H         1 UNK         0.0000 
     71 H71         2.6039    0.9088   -5.8371 H         1 UNK         0.0000 
     72 H72         1.9569    1.0362   -7.4834 H         1 UNK         0.0000 
     73 C73         3.6316   -1.0895   -7.4345 C.3       1 UNK         0.0000 
     74 H74         4.3712   -0.5915   -6.8007 H         1 UNK         0.0000 
     75 H75         3.9176   -2.1380   -7.5556 H         1 UNK         0.0000 
     76 H76         3.6341   -0.6093   -8.4163 H         1 UNK         0.0000 
@<TRIPOS>BOND
     1    1   60 1    
     2    1   23 1    
     3    1   33 am   BACKBONE|DICT|INTERRES
     4    2   31 2    
     5    3    9 ar   
     6    3    6 ar   
     7    3   39 1    
     8    4   61 1    
     9    4   36 1    
    10    4   32 am   BACKBONE|DICT|INTERRES
    11    5   32 2    
    12    6   11 ar   
    13    6   40 1    
    14    7   62 1    
    15    7   34 am   BACKBONE|DICT|INTERRES
    16    7   35 1    
    17    8   33 2    
    18    9   41 1    
    19    9   13 ar   
    20   10   34 2    
    21   11   27 ar   
    22   11   42 1    
    23   12   29 1    
    24   12   30 1    
    25   13   43 1    
    26   13   27 ar   
    27   14   44 1    
    28   14   18 ar   
    29   14   26 ar   
    30   15   26 ar   
    31   15   19 ar   
    32   15   45 1    
    33   16   46 1    
    34   16   20 ar   
    35   16   28 ar   
    36   17   28 ar   
    37   17   21 ar   
    38   17   47 1    
    39   18   48 1    
    40   18   29 ar   
    41   19   29 ar   
    42   19   49 1    
    43   20   50 1    
    44   20   30 ar   
    45   21   30 ar   
    46   21   51 1    
    47   22   26 1    
    48   22   52 1    
    49   22   35 1    
    50   22   53 1    
    51   23   55 1    
    52   23   31 1    
    53   23   54 1    
    54   24   57 1    
    55   24   56 1    
    56   24   25 1    
    57   24   27 1    
    58   25   58 1    
    59   25   36 1    
    60   25   59 1    
    61   28   31 1    
    62   32   35 1    
    63   33   36 1    
    64   34   63 1    
    65   35   37 1    
    66   36   38 1    
    67   63   64 1    
    68   64   69 1    
    69   64   73 1    
    70   64   65 1    
    71   65   66 1    
    72   65   67 1    
    73   65   68 1    
    74   69   71 1    
    75   69   70 1    
    76   69   72 1    
    77   73   74 1    
    78   73   75 1    
    79   73   76 1    
@<TRIPOS>SUBSTRUCTURE
     1 UNK         1 GROUP             0       ****    0 ROOT    
