@<TRIPOS>MOLECULE
Cpd4-1
76   79    1
SMALL
USER_CHARGES


@<TRIPOS>ATOM
      1 N          -2.8973    2.3873   -0.8844 N.3       1 ****        0.0000 
      2 O          -6.1570    2.2479   -1.8602 O.3       1 ****        0.0000 
      3 C          -1.2412   -3.0410   -5.3986 C.3       1 ****        0.0000 
      4 N          -0.3101    0.3589    0.5416 N.3       1 ****        0.0000 
      5 O           1.3959   -0.7414   -0.5136 O.3       1 ****        0.0000 
      6 C          -2.4849   -2.4661   -5.1455 C.3       1 ****        0.0000 
      7 N           0.0920   -0.9806    2.8663 N.3       1 ****        0.0000 
      8 O          -2.2358    1.9923    1.2466 O.3       1 ****        0.0000 
      9 C          -0.1675   -2.7605   -4.5513 C.3       1 ****        0.0000 
     10 O           1.4939    0.5082    3.8839 O.3       1 ****        0.0000 
     11 C          -2.6535   -1.6186   -4.0493 C.3       1 ****        0.0000 
     12 O          -4.3464   -3.5870    0.0682 O.3       1 ****        0.0000 
     13 C          -0.3389   -1.9111   -3.4589 C.3       1 ****        0.0000 
     14 C          -0.7166   -3.3418   -0.2169 C.3       1 ****        0.0000 
     15 C          -1.2865   -3.7261    2.0872 C.3       1 ****        0.0000 
     16 C          -5.6411   -0.5743   -1.5611 C.3       1 ****        0.0000 
     17 C          -4.5267    0.0578    0.4858 C.3       1 ****        0.0000 
     18 C          -2.0462   -3.5241   -0.5812 C.3       1 ****        0.0000 
     19 C          -2.6279   -3.9011    1.7376 C.3       1 ****        0.0000 
     20 C          -5.3878   -1.9182   -1.2930 C.3       1 ****        0.0000 
     21 C          -4.2821   -1.2769    0.7692 C.3       1 ****        0.0000 
     22 C           1.0260   -2.8397    1.5251 C.3       1 ****        0.0000 
     23 C          -4.2402    2.8415   -0.5638 C.3       1 ****        0.0000 
     24 C          -1.7833   -0.4570   -1.9776 C.3       1 ****        0.0000 
     25 C          -0.7934    0.7084   -1.8906 C.3       1 ****        0.0000 
     26 C          -0.3326   -3.3598    1.1287 C.3       1 ****        0.0000 
     27 C          -1.5874   -1.3315   -3.1921 C.3       1 ****        0.0000 
     28 C          -5.1777    0.4248   -0.6967 C.3       1 ****        0.0000 
     29 C          -2.9999   -3.7130    0.4125 C.3       1 ****        0.0000 
     30 C          -4.6755   -2.2596   -0.1433 C.3       1 ****        0.0000 
     31 C          -5.3000    1.8568   -1.0910 C.3       1 ****        0.0000 
     32 C           0.7007   -0.5306    0.4793 C.3       1 ****        0.0000 
     33 C          -2.0195    1.9339    0.0387 C.3       1 ****        0.0000 
     34 C           0.4440   -0.1102    3.8580 C.3       1 ****        0.0000 
     35 C           0.9874   -1.3130    1.7813 C.3       1 ****        0.0000 
     36 C          -0.7028    1.3199   -0.4860 C.3       1 ****        0.0000 
     37 H           1.9887   -0.9904    2.0862 H         1 ****        0.0000 
     38 H           0.0303    2.1394   -0.5127 H         1 ****        0.0000 
     39 H          -1.1069   -3.7029   -6.2484 H         1 ****        0.0000 
     40 H          -3.3259   -2.6761   -5.8001 H         1 ****        0.0000 
     41 H           0.8051   -3.2046   -4.7397 H         1 ****        0.0000 
     42 H          -3.6279   -1.1762   -3.8512 H         1 ****        0.0000 
     43 H           0.5007   -1.6988   -2.7999 H         1 ****        0.0000 
     44 H           0.0219   -3.1108   -0.9802 H         1 ****        0.0000 
     45 H          -0.9918   -3.8236    3.1298 H         1 ****        0.0000 
     46 H          -6.1566   -0.2871   -2.4729 H         1 ****        0.0000 
     47 H          -4.1832    0.8103    1.1864 H         1 ****        0.0000 
     48 H          -2.3611   -3.4266   -1.6174 H         1 ****        0.0000 
     49 H          -3.3863   -4.1005    2.4889 H         1 ****        0.0000 
     50 H          -5.6919   -2.6996   -1.9817 H         1 ****        0.0000 
     51 H          -3.7531   -1.5524    1.6744 H         1 ****        0.0000 
     52 H           1.3826   -3.3182    2.4413 H         1 ****        0.0000 
     53 H           1.7553   -3.0227    0.7324 H         1 ****        0.0000 
     54 H          -4.4381    3.8114   -1.0240 H         1 ****        0.0000 
     55 H          -4.3083    2.9433    0.5231 H         1 ****        0.0000 
     56 H          -1.6595   -1.0685   -1.0772 H         1 ****        0.0000 
     57 H          -2.8186   -0.0987   -1.9568 H         1 ****        0.0000 
     58 H           0.2075    0.3649   -2.1507 H         1 ****        0.0000 
     59 H          -1.0368    1.4945   -2.6154 H         1 ****        0.0000 
     60 H          -2.6575    2.3043   -1.8621 H         1 ****        0.0000 
     61 H          -0.7712    0.4866    1.4352 H         1 ****        0.0000 
     62 H          -0.7940   -1.4611    2.9545 H         1 ****        0.0000 
     63 O          -0.5379   -0.0422    4.7700 O.3       1 ****        0.0000 
     64 C          -0.4598    0.8999    5.8880 C.3       1 ****        0.0000 
     65 C          -0.3801    2.3300    5.3602 C.3       1 ****        0.0000 
     66 H          -0.4857    3.0243    6.1995 H         1 ****        0.0000 
     67 H           0.5723    2.5186    4.8650 H         1 ****        0.0000 
     68 H          -1.1955    2.5163    4.6546 H         1 ****        0.0000 
     69 C          -1.7802    0.6684    6.6118 C.3       1 ****        0.0000 
     70 H          -2.6229    0.8881    5.9500 H         1 ****        0.0000 
     71 H          -1.8557   -0.3699    6.9471 H         1 ****        0.0000 
     72 H          -1.8412    1.3228    7.4854 H         1 ****        0.0000 
     73 C           0.7172    0.5447    6.7910 C.3       1 ****        0.0000 
     74 H           0.6572   -0.5058    7.0908 H         1 ****        0.0000 
     75 H           1.6699    0.7217    6.2887 H         1 ****        0.0000 
     76 H           0.6743    1.1620    7.6928 H         1 ****        0.0000 
@<TRIPOS>BOND
     1    1   23 1    
     2    1   33 1    
     3    1   60 1    
     4    2   31 1    
     5    3    6 1    
     6    3    9 1    
     7    3   39 1    
     8    4   32 1    
     9    4   36 1    
    10    4   61 1    
    11    5   32 1    
    12    6   11 1    
    13    6   40 1    
    14    7   34 1    
    15    7   35 1    
    16    7   62 1    
    17    8   33 1    
    18    9   13 1    
    19    9   41 1    
    20   10   34 1    
    21   11   27 1    
    22   11   42 1    
    23   12   29 1    
    24   12   30 1    
    25   13   27 1    
    26   13   43 1    
    27   14   18 1    
    28   14   26 1    
    29   14   44 1    
    30   15   19 1    
    31   15   26 1    
    32   15   45 1    
    33   16   20 1    
    34   16   28 1    
    35   16   46 1    
    36   17   21 1    
    37   17   28 1    
    38   17   47 1    
    39   18   29 1    
    40   18   48 1    
    41   19   29 1    
    42   19   49 1    
    43   20   30 1    
    44   20   50 1    
    45   21   30 1    
    46   21   51 1    
    47   22   26 1    
    48   22   35 1    
    49   22   52 1    
    50   22   53 1    
    51   23   31 1    
    52   23   54 1    
    53   23   55 1    
    54   24   25 1    
    55   24   27 1    
    56   24   56 1    
    57   24   57 1    
    58   25   36 1    
    59   25   58 1    
    60   25   59 1    
    61   28   31 1    
    62   32   35 1    
    63   33   36 1    
    64   34   63 1    
    65   35   37 1    
    66   36   38 1    
    67   63   64 1    
    68   64   65 1    
    69   64   69 1    
    70   64   73 1    
    71   65   66 1    
    72   65   67 1    
    73   65   68 1    
    74   69   70 1    
    75   69   71 1    
    76   69   72 1    
    77   73   74 1    
    78   73   75 1    
    79   73   76 1    
@<TRIPOS>SUBSTRUCTURE
     1 ****        1 GROUP             0       ****    0 ROOT    
@<TRIPOS>MOLECULE
Cpd4-2
76   79    1
SMALL
USER_CHARGES


@<TRIPOS>ATOM
      1 N          -2.9163    2.3813   -0.8039 N.3       1 ****        0.0000 
      2 O          -6.1159    2.3215   -1.9039 O.3       1 ****        0.0000 
      3 C          -3.0400    3.7893   -4.3926 C.3       1 ****        0.0000 
      4 N          -0.3834    0.1943    0.6070 N.3       1 ****        0.0000 
      5 O           1.3213   -0.7127   -0.5818 O.3       1 ****        0.0000 
      6 C          -3.7085    2.5621   -4.3637 C.3       1 ****        0.0000 
      7 N           0.4448   -0.9655    2.9317 N.3       1 ****        0.0000 
      8 O          -2.3350    1.7607    1.3007 O.3       1 ****        0.0000 
      9 C          -1.6922    3.8490   -4.0456 C.3       1 ****        0.0000 
     10 O           1.8251    0.7522    3.5163 O.3       1 ****        0.0000 
     11 C          -3.0288    1.4089   -3.9763 C.3       1 ****        0.0000 
     12 O          -4.2977   -3.5130    0.0696 O.3       1 ****        0.0000 
     13 C          -1.0163    2.6909   -3.6513 C.3       1 ****        0.0000 
     14 C          -0.6564   -3.3037   -0.2200 C.3       1 ****        0.0000 
     15 C          -1.2316   -3.6065    2.0943 C.3       1 ****        0.0000 
     16 C          -5.4857   -0.5101   -1.6663 C.3       1 ****        0.0000 
     17 C          -4.7131    0.1017    0.5395 C.3       1 ****        0.0000 
     18 C          -1.9931   -3.4440   -0.5760 C.3       1 ****        0.0000 
     19 C          -2.5772   -3.7519    1.7505 C.3       1 ****        0.0000 
     20 C          -5.2166   -1.8511   -1.3950 C.3       1 ****        0.0000 
     21 C          -4.4587   -1.2308    0.8249 C.3       1 ****        0.0000 
     22 C           1.1254   -2.8562    1.4943 C.3       1 ****        0.0000 
     23 C          -4.2496    2.8747   -0.5030 C.3       1 ****        0.0000 
     24 C          -1.0127    0.2299   -3.0335 C.3       1 ****        0.0000 
     25 C          -1.4722   -0.1010   -1.6033 C.3       1 ****        0.0000 
     26 C          -0.2663   -3.3084    1.1237 C.3       1 ****        0.0000 
     27 C          -1.6792    1.4600   -3.5970 C.3       1 ****        0.0000 
     28 C          -5.1931    0.4783   -0.7205 C.3       1 ****        0.0000 
     29 C          -2.9502   -3.5975    0.4205 C.3       1 ****        0.0000 
     30 C          -4.6659   -2.1964   -0.1616 C.3       1 ****        0.0000 
     31 C          -5.3004    1.9198   -1.0965 C.3       1 ****        0.0000 
     32 C           0.7145   -0.5718    0.4801 C.3       1 ****        0.0000 
     33 C          -2.1357    1.7311    0.0890 C.3       1 ****        0.0000 
     34 C           0.8457    0.0615    3.7350 C.3       1 ****        0.0000 
     35 C           1.1793   -1.3262    1.7387 C.3       1 ****        0.0000 
     36 C          -0.9887    0.8946   -0.5119 C.3       1 ****        0.0000 
     37 H           2.2224   -1.0353    1.8950 H         1 ****        0.0000 
     38 H          -0.2498    1.5826   -0.9491 H         1 ****        0.0000 
     39 H          -3.5691    4.6905   -4.6876 H         1 ****        0.0000 
     40 H          -4.7591    2.5067   -4.6311 H         1 ****        0.0000 
     41 H          -1.1642    4.7976   -4.0717 H         1 ****        0.0000 
     42 H          -3.5544    0.4566   -3.9395 H         1 ****        0.0000 
     43 H           0.0318    2.7455   -3.3685 H         1 ****        0.0000 
     44 H           0.0914   -3.1238   -0.9881 H         1 ****        0.0000 
     45 H          -0.9386   -3.6983    3.1385 H         1 ****        0.0000 
     46 H          -5.8779   -0.2151   -2.6354 H         1 ****        0.0000 
     47 H          -4.5060    0.8470    1.2980 H         1 ****        0.0000 
     48 H          -2.3098   -3.3687   -1.6127 H         1 ****        0.0000 
     49 H          -3.3362   -3.9258    2.5065 H         1 ****        0.0000 
     50 H          -5.3868   -2.6236   -2.1377 H         1 ****        0.0000 
     51 H          -4.0593   -1.5180    1.7917 H         1 ****        0.0000 
     52 H           1.4811   -3.3498    2.4035 H         1 ****        0.0000 
     53 H           1.8226   -3.0821    0.6845 H         1 ****        0.0000 
     54 H          -4.4031    3.8592   -0.9495 H         1 ****        0.0000 
     55 H          -4.3511    2.9544    0.5822 H         1 ****        0.0000 
     56 H           0.0756    0.3507   -3.0312 H         1 ****        0.0000 
     57 H          -1.2447   -0.6322   -3.6681 H         1 ****        0.0000 
     58 H          -2.5649   -0.2035   -1.5668 H         1 ****        0.0000 
     59 H          -1.0569   -1.0720   -1.3425 H         1 ****        0.0000 
     60 H          -2.6797    2.3008   -1.7861 H         1 ****        0.0000 
     61 H          -0.8231    0.3213    1.5105 H         1 ****        0.0000 
     62 H          -0.3956   -1.4677    3.1862 H         1 ****        0.0000 
     63 O           0.0045    0.1835    4.7741 O.3       1 ****        0.0000 
     64 C           0.1618    1.2710    5.7406 C.3       1 ****        0.0000 
     65 C           0.0282    2.6175    5.0374 C.3       1 ****        0.0000 
     66 H          -0.0160    3.4106    5.7905 H         1 ****        0.0000 
     67 H           0.8747    2.8084    4.3775 H         1 ****        0.0000 
     68 H          -0.8968    2.6465    4.4524 H         1 ****        0.0000 
     69 C          -1.0080    1.0445    6.6912 C.3       1 ****        0.0000 
     70 H          -1.9566    1.1096    6.1509 H         1 ****        0.0000 
     71 H          -0.9359    0.0588    7.1589 H         1 ****        0.0000 
     72 H          -0.9992    1.8060    7.4757 H         1 ****        0.0000 
     73 C           1.4886    1.1284    6.4806 C.3       1 ****        0.0000 
     74 H           1.5737    0.1253    6.9094 H         1 ****        0.0000 
     75 H           2.3346    1.3074    5.8158 H         1 ****        0.0000 
     76 H           1.5205    1.8542    7.2975 H         1 ****        0.0000 
@<TRIPOS>BOND
     1    1   23 1    
     2    1   33 1    
     3    1   60 1    
     4    2   31 1    
     5    3    6 1    
     6    3    9 1    
     7    3   39 1    
     8    4   32 1    
     9    4   36 1    
    10    4   61 1    
    11    5   32 1    
    12    6   11 1    
    13    6   40 1    
    14    7   34 1    
    15    7   35 1    
    16    7   62 1    
    17    8   33 1    
    18    9   13 1    
    19    9   41 1    
    20   10   34 1    
    21   11   27 1    
    22   11   42 1    
    23   12   29 1    
    24   12   30 1    
    25   13   27 1    
    26   13   43 1    
    27   14   18 1    
    28   14   26 1    
    29   14   44 1    
    30   15   19 1    
    31   15   26 1    
    32   15   45 1    
    33   16   20 1    
    34   16   28 1    
    35   16   46 1    
    36   17   21 1    
    37   17   28 1    
    38   17   47 1    
    39   18   29 1    
    40   18   48 1    
    41   19   29 1    
    42   19   49 1    
    43   20   30 1    
    44   20   50 1    
    45   21   30 1    
    46   21   51 1    
    47   22   26 1    
    48   22   35 1    
    49   22   52 1    
    50   22   53 1    
    51   23   31 1    
    52   23   54 1    
    53   23   55 1    
    54   24   25 1    
    55   24   27 1    
    56   24   56 1    
    57   24   57 1    
    58   25   36 1    
    59   25   58 1    
    60   25   59 1    
    61   28   31 1    
    62   32   35 1    
    63   33   36 1    
    64   34   63 1    
    65   35   37 1    
    66   36   38 1    
    67   63   64 1    
    68   64   65 1    
    69   64   69 1    
    70   64   73 1    
    71   65   66 1    
    72   65   67 1    
    73   65   68 1    
    74   69   70 1    
    75   69   71 1    
    76   69   72 1    
    77   73   74 1    
    78   73   75 1    
    79   73   76 1    
@<TRIPOS>SUBSTRUCTURE
     1 ****        1 GROUP             0       ****    0 ROOT    
@<TRIPOS>MOLECULE
Cpd4-3
76   79    1
SMALL
USER_CHARGES


@<TRIPOS>ATOM
      1 N          -2.7650    2.0141    0.3414 N.3       1 ****        0.0000 
      2 O          -5.7499    2.4756   -1.4564 O.3       1 ****        0.0000 
      3 C          -2.0939   -3.9656   -5.1002 C.3       1 ****        0.0000 
      4 N          -0.6358    0.2309    0.5242 N.3       1 ****        0.0000 
      5 O           1.4649   -0.4087   -0.0663 O.3       1 ****        0.0000 
      6 C          -3.1392   -3.0470   -5.0204 C.3       1 ****        0.0000 
      7 N          -0.0276   -0.7556    3.2432 N.3       1 ****        0.0000 
      8 O          -2.3523    2.3704   -1.8408 O.3       1 ****        0.0000 
      9 C          -0.8331   -3.6175   -4.6110 C.3       1 ****        0.0000 
     10 O          -2.2352   -0.5776    2.5769 O.3       1 ****        0.0000 
     11 C          -2.9271   -1.7921   -4.4452 C.3       1 ****        0.0000 
     12 O          -4.2988   -3.6789   -0.1992 O.3       1 ****        0.0000 
     13 C          -0.6288   -2.3645   -4.0364 C.3       1 ****        0.0000 
     14 C          -0.6698   -3.2806   -0.0669 C.3       1 ****        0.0000 
     15 C          -1.4916   -3.6440    2.1630 C.3       1 ****        0.0000 
     16 C          -5.1669   -0.4159   -1.6484 C.3       1 ****        0.0000 
     17 C          -4.7747   -0.1707    0.7206 C.3       1 ****        0.0000 
     18 C          -1.9393   -3.5180   -0.5867 C.3       1 ****        0.0000 
     19 C          -2.7636   -3.9063    1.6567 C.3       1 ****        0.0000 
     20 C          -4.9782   -1.7958   -1.5411 C.3       1 ****        0.0000 
     21 C          -4.6201   -1.5386    0.8424 C.3       1 ****        0.0000 
     22 C           0.8332   -2.6784    1.8511 C.3       1 ****        0.0000 
     23 C          -4.0508    2.6793    0.2271 C.3       1 ****        0.0000 
     24 C          -1.4646   -0.1208   -3.2253 C.3       1 ****        0.0000 
     25 C          -1.3394   -0.3973   -1.7247 C.3       1 ****        0.0000 
     26 C          -0.4524   -3.2502    1.3144 C.3       1 ****        0.0000 
     27 C          -1.6751   -1.4370   -3.9389 C.3       1 ****        0.0000 
     28 C          -5.0187    0.4084   -0.5294 C.3       1 ****        0.0000 
     29 C          -2.9904   -3.7498    0.2934 C.3       1 ****        0.0000 
     30 C          -4.6612   -2.3399   -0.2992 C.3       1 ****        0.0000 
     31 C          -5.0294    1.8963   -0.6691 C.3       1 ****        0.0000 
     32 C           0.5439   -0.3945    0.7445 C.3       1 ****        0.0000 
     33 C          -2.0514    1.8025   -0.7946 C.3       1 ****        0.0000 
     34 C          -1.3663   -0.6517    3.4449 C.3       1 ****        0.0000 
     35 C           0.7682   -1.1398    2.0738 C.3       1 ****        0.0000 
     36 C          -0.9351    0.7669   -0.7997 C.3       1 ****        0.0000 
     37 H           1.7834   -0.8356    2.3411 H         1 ****        0.0000 
     38 H          -0.0324    1.2493   -1.1850 H         1 ****        0.0000 
     39 H          -2.2566   -4.9421   -5.5443 H         1 ****        0.0000 
     40 H          -4.1211   -3.3053   -5.4059 H         1 ****        0.0000 
     41 H          -0.0098   -4.3222   -4.6771 H         1 ****        0.0000 
     42 H          -3.7450   -1.0782   -4.3869 H         1 ****        0.0000 
     43 H           0.3561   -2.0998   -3.6551 H         1 ****        0.0000 
     44 H           0.1515   -3.0485   -0.7412 H         1 ****        0.0000 
     45 H          -1.3247   -3.6866    3.2379 H         1 ****        0.0000 
     46 H          -5.3657    0.0375   -2.6147 H         1 ****        0.0000 
     47 H          -4.6839    0.4440    1.6123 H         1 ****        0.0000 
     48 H          -2.1350   -3.4392   -1.6545 H         1 ****        0.0000 
     49 H          -3.5923   -4.1448    2.3170 H         1 ****        0.0000 
     50 H          -5.0093   -2.4412   -2.4129 H         1 ****        0.0000 
     51 H          -4.3824   -1.9759    1.8034 H         1 ****        0.0000 
     52 H           1.0992   -3.1323    2.8106 H         1 ****        0.0000 
     53 H           1.6539   -2.8626    1.1518 H         1 ****        0.0000 
     54 H          -3.9365    3.6706   -0.2154 H         1 ****        0.0000 
     55 H          -4.4770    2.7907    1.2280 H         1 ****        0.0000 
     56 H          -2.2943    0.5598   -3.4269 H         1 ****        0.0000 
     57 H          -0.5482    0.3653   -3.5830 H         1 ****        0.0000 
     58 H          -2.2768   -0.8291   -1.3459 H         1 ****        0.0000 
     59 H          -0.5650   -1.1547   -1.5850 H         1 ****        0.0000 
     60 H          -2.5445    1.5031    1.1866 H         1 ****        0.0000 
     61 H          -1.4104   -0.1055    1.1037 H         1 ****        0.0000 
     62 H           0.4960   -0.7619    4.1094 H         1 ****        0.0000 
     63 O          -1.6120   -0.6023    4.7603 O.3       1 ****        0.0000 
     64 C          -2.9479   -0.3037    5.2831 C.3       1 ****        0.0000 
     65 C          -2.7282   -0.3451    6.7908 C.3       1 ****        0.0000 
     66 H          -3.6645   -0.1160    7.3058 H         1 ****        0.0000 
     67 H          -2.3931   -1.3391    7.0994 H         1 ****        0.0000 
     68 H          -1.9752    0.3889    7.0879 H         1 ****        0.0000 
     69 C          -3.3773    1.0912    4.8408 C.3       1 ****        0.0000 
     70 H          -2.6206    1.8289    5.1230 H         1 ****        0.0000 
     71 H          -3.5356    1.1354    3.7615 H         1 ****        0.0000 
     72 H          -4.3151    1.3519    5.3391 H         1 ****        0.0000 
     73 C          -3.9382   -1.3833    4.8558 C.3       1 ****        0.0000 
     74 H          -4.1825   -1.3000    3.7980 H         1 ****        0.0000 
     75 H          -3.5213   -2.3764    5.0516 H         1 ****        0.0000 
     76 H          -4.8568   -1.2751    5.4397 H         1 ****        0.0000 
@<TRIPOS>BOND
     1    1   23 1    
     2    1   33 1    
     3    1   60 1    
     4    2   31 1    
     5    3    6 1    
     6    3    9 1    
     7    3   39 1    
     8    4   32 1    
     9    4   36 1    
    10    4   61 1    
    11    5   32 1    
    12    6   11 1    
    13    6   40 1    
    14    7   34 1    
    15    7   35 1    
    16    7   62 1    
    17    8   33 1    
    18    9   13 1    
    19    9   41 1    
    20   10   34 1    
    21   11   27 1    
    22   11   42 1    
    23   12   29 1    
    24   12   30 1    
    25   13   27 1    
    26   13   43 1    
    27   14   18 1    
    28   14   26 1    
    29   14   44 1    
    30   15   19 1    
    31   15   26 1    
    32   15   45 1    
    33   16   20 1    
    34   16   28 1    
    35   16   46 1    
    36   17   21 1    
    37   17   28 1    
    38   17   47 1    
    39   18   29 1    
    40   18   48 1    
    41   19   29 1    
    42   19   49 1    
    43   20   30 1    
    44   20   50 1    
    45   21   30 1    
    46   21   51 1    
    47   22   26 1    
    48   22   35 1    
    49   22   52 1    
    50   22   53 1    
    51   23   31 1    
    52   23   54 1    
    53   23   55 1    
    54   24   25 1    
    55   24   27 1    
    56   24   56 1    
    57   24   57 1    
    58   25   36 1    
    59   25   58 1    
    60   25   59 1    
    61   28   31 1    
    62   32   35 1    
    63   33   36 1    
    64   34   63 1    
    65   35   37 1    
    66   36   38 1    
    67   63   64 1    
    68   64   65 1    
    69   64   69 1    
    70   64   73 1    
    71   65   66 1    
    72   65   67 1    
    73   65   68 1    
    74   69   70 1    
    75   69   71 1    
    76   69   72 1    
    77   73   74 1    
    78   73   75 1    
    79   73   76 1    
@<TRIPOS>SUBSTRUCTURE
     1 ****        1 GROUP             0       ****    0 ROOT    
@<TRIPOS>MOLECULE
Cpd4-4
76   79    1
SMALL
USER_CHARGES


@<TRIPOS>ATOM
      1 N          -3.0026    2.2563   -0.1014 N.3       1 ****        0.0000 
      2 O          -6.4235    2.4850   -0.3895 O.3       1 ****        0.0000 
      3 C          -2.8771    3.5640    4.6944 C.3       1 ****        0.0000 
      4 N          -0.0819    0.2022    0.0437 N.3       1 ****        0.0000 
      5 O           0.8707   -0.1495    2.0686 O.3       1 ****        0.0000 
      6 C          -1.6701    2.8721    4.5883 C.3       1 ****        0.0000 
      7 N           2.9065   -1.3259    0.4289 N.3       1 ****        0.0000 
      8 O          -1.6707    1.4543   -1.7637 O.3       1 ****        0.0000 
      9 C          -3.3113    4.3530    3.6303 C.3       1 ****        0.0000 
     10 O           3.5298   -2.6139   -1.3449 O.3       1 ****        0.0000 
     11 C          -0.9026    2.9688    3.4286 C.3       1 ****        0.0000 
     12 O          -4.3953   -3.5657    0.1501 O.3       1 ****        0.0000 
     13 C          -2.5395    4.4466    2.4706 C.3       1 ****        0.0000 
     14 C          -1.2452   -2.7414    1.8272 C.3       1 ****        0.0000 
     15 C          -0.7675   -4.0616   -0.1289 C.3       1 ****        0.0000 
     16 C          -4.2939   -0.2414   -1.3641 C.3       1 ****        0.0000 
     17 C          -6.0787   -0.3200    0.2672 C.3       1 ****        0.0000 
     18 C          -2.6075   -2.8877    1.5978 C.3       1 ****        0.0000 
     19 C          -2.1338   -4.2195   -0.3690 C.3       1 ****        0.0000 
     20 C          -4.0536   -1.5902   -1.1717 C.3       1 ****        0.0000 
     21 C          -5.8281   -1.6736    0.4847 C.3       1 ****        0.0000 
     22 C           1.1531   -2.9509    1.0849 C.3       1 ****        0.0000 
     23 C          -4.1073    2.6889   -0.9384 C.3       1 ****        0.0000 
     24 C          -0.4995    3.8884    1.0882 C.3       1 ****        0.0000 
     25 C           0.1615    2.5885    0.6145 C.3       1 ****        0.0000 
     26 C          -0.3078   -3.2920    0.9433 C.3       1 ****        0.0000 
     27 C          -1.3253    3.7600    2.3538 C.3       1 ****        0.0000 
     28 C          -5.2780    0.4133   -0.6141 C.3       1 ****        0.0000 
     29 C          -3.0377   -3.5889    0.4745 C.3       1 ****        0.0000 
     30 C          -4.7774   -2.2811   -0.1969 C.3       1 ****        0.0000 
     31 C          -5.3911    1.8967   -0.6484 C.3       1 ****        0.0000 
     32 C           0.7273   -0.4649    0.8871 C.3       1 ****        0.0000 
     33 C          -1.8703    1.6911   -0.5743 C.3       1 ****        0.0000 
     34 C           3.8228   -1.9199   -0.3850 C.3       1 ****        0.0000 
     35 C           1.4993   -1.6571    0.3161 C.3       1 ****        0.0000 
     36 C          -0.7998    1.3906    0.4722 C.3       1 ****        0.0000 
     37 H           1.2751   -1.7937   -0.7450 H         1 ****        0.0000 
     38 H          -1.2642    1.1750    1.4407 H         1 ****        0.0000 
     39 H          -3.4759    3.4848    5.5964 H         1 ****        0.0000 
     40 H          -1.3262    2.2507    5.4092 H         1 ****        0.0000 
     41 H          -4.2502    4.8928    3.6977 H         1 ****        0.0000 
     42 H           0.0269    2.4073    3.3563 H         1 ****        0.0000 
     43 H          -2.8839    5.0638    1.6428 H         1 ****        0.0000 
     44 H          -0.8995   -2.1595    2.6781 H         1 ****        0.0000 
     45 H          -0.0502   -4.5122   -0.8103 H         1 ****        0.0000 
     46 H          -3.6819    0.3049   -2.0751 H         1 ****        0.0000 
     47 H          -6.8509    0.1928    0.8312 H         1 ****        0.0000 
     48 H          -3.3401   -2.4190    2.2495 H         1 ****        0.0000 
     49 H          -2.4972   -4.7722   -1.2297 H         1 ****        0.0000 
     50 H          -3.2635   -2.0952   -1.7166 H         1 ****        0.0000 
     51 H          -6.3870   -2.2422    1.2212 H         1 ****        0.0000 
     52 H           1.4184   -2.7978    2.1357 H         1 ****        0.0000 
     53 H           1.7851   -3.7475    0.6797 H         1 ****        0.0000 
     54 H          -3.8040    2.5568   -1.9822 H         1 ****        0.0000 
     55 H          -4.3288    3.7450   -0.7675 H         1 ****        0.0000 
     56 H           0.2943    4.6263    1.2512 H         1 ****        0.0000 
     57 H          -1.1344    4.2958    0.2940 H         1 ****        0.0000 
     58 H           0.6383    2.7578   -0.3571 H         1 ****        0.0000 
     59 H           0.9468    2.2790    1.3115 H         1 ****        0.0000 
     60 H          -3.0722    2.4218    0.8971 H         1 ****        0.0000 
     61 H          -0.1278   -0.0352   -0.9414 H         1 ****        0.0000 
     62 H           3.2297   -0.9081    1.2924 H         1 ****        0.0000 
     63 O           5.0673   -1.6120    0.0155 O.3       1 ****        0.0000 
     64 C           6.2337   -2.0881   -0.7268 C.3       1 ****        0.0000 
     65 C           6.2179   -1.5268   -2.1455 C.3       1 ****        0.0000 
     66 H           7.1656   -1.7691   -2.6349 H         1 ****        0.0000 
     67 H           5.4007   -1.9499   -2.7310 H         1 ****        0.0000 
     68 H           6.1154   -0.4381   -2.1166 H         1 ****        0.0000 
     69 C           7.3961   -1.5036    0.0669 C.3       1 ****        0.0000 
     70 H           7.3340   -0.4118    0.0879 H         1 ****        0.0000 
     71 H           7.3822   -1.8758    1.0956 H         1 ****        0.0000 
     72 H           8.3427   -1.7922   -0.3969 H         1 ****        0.0000 
     73 C           6.2844   -3.6135   -0.7057 C.3       1 ****        0.0000 
     74 H           6.2198   -3.9770    0.3244 H         1 ****        0.0000 
     75 H           5.4731   -4.0462   -1.2914 H         1 ****        0.0000 
     76 H           7.2385   -3.9438   -1.1262 H         1 ****        0.0000 
@<TRIPOS>BOND
     1    1   23 1    
     2    1   33 1    
     3    1   60 1    
     4    2   31 1    
     5    3    6 1    
     6    3    9 1    
     7    3   39 1    
     8    4   32 1    
     9    4   36 1    
    10    4   61 1    
    11    5   32 1    
    12    6   11 1    
    13    6   40 1    
    14    7   34 1    
    15    7   35 1    
    16    7   62 1    
    17    8   33 1    
    18    9   13 1    
    19    9   41 1    
    20   10   34 1    
    21   11   27 1    
    22   11   42 1    
    23   12   29 1    
    24   12   30 1    
    25   13   27 1    
    26   13   43 1    
    27   14   18 1    
    28   14   26 1    
    29   14   44 1    
    30   15   19 1    
    31   15   26 1    
    32   15   45 1    
    33   16   20 1    
    34   16   28 1    
    35   16   46 1    
    36   17   21 1    
    37   17   28 1    
    38   17   47 1    
    39   18   29 1    
    40   18   48 1    
    41   19   29 1    
    42   19   49 1    
    43   20   30 1    
    44   20   50 1    
    45   21   30 1    
    46   21   51 1    
    47   22   26 1    
    48   22   35 1    
    49   22   52 1    
    50   22   53 1    
    51   23   31 1    
    52   23   54 1    
    53   23   55 1    
    54   24   25 1    
    55   24   27 1    
    56   24   56 1    
    57   24   57 1    
    58   25   36 1    
    59   25   58 1    
    60   25   59 1    
    61   28   31 1    
    62   32   35 1    
    63   33   36 1    
    64   34   63 1    
    65   35   37 1    
    66   36   38 1    
    67   63   64 1    
    68   64   65 1    
    69   64   69 1    
    70   64   73 1    
    71   65   66 1    
    72   65   67 1    
    73   65   68 1    
    74   69   70 1    
    75   69   71 1    
    76   69   72 1    
    77   73   74 1    
    78   73   75 1    
    79   73   76 1    
@<TRIPOS>SUBSTRUCTURE
     1 ****        1 GROUP             0       ****    0 ROOT    
@<TRIPOS>MOLECULE
Cpd4-5-MEC
76   79    1
SMALL
USER_CHARGES


@<TRIPOS>ATOM
      1 N          -3.0080    2.3060   -0.1380 N.3       1 ****        0.0000 
      2 O          -6.4050    2.5100   -0.3970 O.3       1 ****        0.0000 
      3 C           3.3640    6.3100    0.7150 C.3       1 ****        0.0000 
      4 N          -0.0890    0.1970    0.0910 N.3       1 ****        0.0000 
      5 O           0.8760   -0.1730    2.1090 O.3       1 ****        0.0000 
      6 C           2.0800    6.6060    0.2570 C.3       1 ****        0.0000 
      7 N           2.9310   -1.2960    0.4750 N.3       1 ****        0.0000 
      8 O          -1.7150    1.2940   -1.7140 O.3       1 ****        0.0000 
      9 C           3.7790    4.9800    0.7920 C.3       1 ****        0.0000 
     10 O           3.5990   -2.5260   -1.3230 O.3       1 ****        0.0000 
     11 C           1.2190    5.5760   -0.1210 C.3       1 ****        0.0000 
     12 O          -4.3880   -3.5450    0.1660 O.3       1 ****        0.0000 
     13 C           2.9140    3.9550    0.4140 C.3       1 ****        0.0000 
     14 C          -1.2160   -2.7490    1.8200 C.3       1 ****        0.0000 
     15 C          -0.7600   -4.0200   -0.1740 C.3       1 ****        0.0000 
     16 C          -4.3430   -0.2500   -1.4150 C.3       1 ****        0.0000 
     17 C          -6.0370   -0.2830    0.3120 C.3       1 ****        0.0000 
     18 C          -2.5810   -2.8880    1.6020 C.3       1 ****        0.0000 
     19 C          -2.1290   -4.1730   -0.4020 C.3       1 ****        0.0000 
     20 C          -4.1020   -1.5980   -1.2070 C.3       1 ****        0.0000 
     21 C          -5.7850   -1.6340    0.5430 C.3       1 ****        0.0000 
     22 C           1.1760   -2.9490    1.0540 C.3       1 ****        0.0000 
     23 C          -4.1020    2.6900   -1.0150 C.3       1 ****        0.0000 
     24 C           0.6790    3.1210   -0.4130 C.3       1 ****        0.0000 
     25 C          -0.0320    2.5710    0.8300 C.3       1 ****        0.0000 
     26 C          -0.2880   -3.2790    0.9130 C.3       1 ****        0.0000 
     27 C           1.6240    4.2400   -0.0480 C.3       1 ****        0.0000 
     28 C          -5.2800    0.4280   -0.6260 C.3       1 ****        0.0000 
     29 C          -3.0240   -3.5650    0.4680 C.3       1 ****        0.0000 
     30 C          -4.7760   -2.2630   -0.1820 C.3       1 ****        0.0000 
     31 C          -5.3850    1.9110   -0.6820 C.3       1 ****        0.0000 
     32 C           0.7370   -0.4660    0.9220 C.3       1 ****        0.0000 
     33 C          -1.9150    1.6210   -0.5480 C.3       1 ****        0.0000 
     34 C           3.8680   -1.8590   -0.3370 C.3       1 ****        0.0000 
     35 C           1.5280   -1.6320    0.3270 C.3       1 ****        0.0000 
     36 C          -0.8890    1.3210    0.5450 C.3       1 ****        0.0000 
     37 H           1.3230   -1.7390   -0.7420 H         1 ****        0.0000 
     38 H          -1.4000    1.0260    1.4690 H         1 ****        0.0000 
     39 H           4.0370    7.1100    1.0060 H         1 ****        0.0000 
     40 H           1.7500    7.6380    0.1890 H         1 ****        0.0000 
     41 H           4.7780    4.7420    1.1440 H         1 ****        0.0000 
     42 H           0.2200    5.8110   -0.4820 H         1 ****        0.0000 
     43 H           3.2420    2.9190    0.4730 H         1 ****        0.0000 
     44 H          -0.8600   -2.1910    2.6820 H         1 ****        0.0000 
     45 H          -0.0500   -4.4550   -0.8730 H         1 ****        0.0000 
     46 H          -3.7670    0.2760   -2.1670 H         1 ****        0.0000 
     47 H          -6.7760    0.2470    0.9050 H         1 ****        0.0000 
     48 H          -3.3060   -2.4380    2.2740 H         1 ****        0.0000 
     49 H          -2.5020   -4.7090   -1.2680 H         1 ****        0.0000 
     50 H          -3.3450   -2.1190   -1.7830 H         1 ****        0.0000 
     51 H          -6.3090   -2.1830    1.3170 H         1 ****        0.0000 
     52 H           1.4460   -2.8300    2.1090 H         1 ****        0.0000 
     53 H           1.8020   -3.7370    0.6230 H         1 ****        0.0000 
     54 H          -3.7860    2.4960   -2.0430 H         1 ****        0.0000 
     55 H          -4.3250    3.7530   -0.9070 H         1 ****        0.0000 
     56 H           1.2360    2.3090   -0.8970 H         1 ****        0.0000 
     57 H          -0.0580    3.4810   -1.1390 H         1 ****        0.0000 
     58 H           0.7040    2.2930    1.5900 H         1 ****        0.0000 
     59 H          -0.6700    3.3480    1.2670 H         1 ****        0.0000 
     60 H          -3.1060    2.5030    0.8500 H         1 ****        0.0000 
     61 H          -0.1650   -0.0560   -0.8880 H         1 ****        0.0000 
     62 H           3.2330   -0.9000    1.3570 H         1 ****        0.0000 
     63 O           5.1010   -1.5520    0.0960 O.3       1 ****        0.0000 
     64 C           6.2860   -2.0000   -0.6330 C.3       1 ****        0.0000 
     65 C           7.4280   -1.4290    0.2000 C.3       1 ****        0.0000 
     66 H           8.3860   -1.7010   -0.2510 H         1 ****        0.0000 
     67 H           7.3590   -0.3390    0.2470 H         1 ****        0.0000 
     68 H           7.3940   -1.8280    1.2180 H         1 ****        0.0000 
     69 C           6.3470   -3.5250   -0.6520 C.3       1 ****        0.0000 
     70 H           6.2660   -3.9160    0.3670 H         1 ****        0.0000 
     71 H           5.5490   -3.9460   -1.2640 H         1 ****        0.0000 
     72 H           7.3110   -3.8380   -1.0630 H         1 ****        0.0000 
     73 C           6.2950   -1.4010   -2.0360 C.3       1 ****        0.0000 
     74 H           5.4950   -1.8140   -2.6500 H         1 ****        0.0000 
     75 H           6.1820   -0.3140   -1.9810 H         1 ****        0.0000 
     76 H           7.2550   -1.6210   -2.5130 H         1 ****        0.0000 
@<TRIPOS>BOND
     1    1   23 1    
     2    1   33 1    
     3    1   60 1    
     4    2   31 1    
     5    3    6 1    
     6    3    9 1    
     7    3   39 1    
     8    4   32 1    
     9    4   36 1    
    10    4   61 1    
    11    5   32 1    
    12    6   11 1    
    13    6   40 1    
    14    7   34 1    
    15    7   35 1    
    16    7   62 1    
    17    8   33 1    
    18    9   13 1    
    19    9   41 1    
    20   10   34 1    
    21   11   27 1    
    22   11   42 1    
    23   12   29 1    
    24   12   30 1    
    25   13   27 1    
    26   13   43 1    
    27   14   18 1    
    28   14   26 1    
    29   14   44 1    
    30   15   19 1    
    31   15   26 1    
    32   15   45 1    
    33   16   20 1    
    34   16   28 1    
    35   16   46 1    
    36   17   21 1    
    37   17   28 1    
    38   17   47 1    
    39   18   29 1    
    40   18   48 1    
    41   19   29 1    
    42   19   49 1    
    43   20   30 1    
    44   20   50 1    
    45   21   30 1    
    46   21   51 1    
    47   22   26 1    
    48   22   35 1    
    49   22   52 1    
    50   22   53 1    
    51   23   31 1    
    52   23   54 1    
    53   23   55 1    
    54   24   25 1    
    55   24   27 1    
    56   24   56 1    
    57   24   57 1    
    58   25   36 1    
    59   25   58 1    
    60   25   59 1    
    61   28   31 1    
    62   32   35 1    
    63   33   36 1    
    64   34   63 1    
    65   35   37 1    
    66   36   38 1    
    67   63   64 1    
    68   64   65 1    
    69   64   69 1    
    70   64   73 1    
    71   65   66 1    
    72   65   67 1    
    73   65   68 1    
    74   69   70 1    
    75   69   71 1    
    76   69   72 1    
    77   73   74 1    
    78   73   75 1    
    79   73   76 1    
@<TRIPOS>SUBSTRUCTURE
     1 ****        1 GROUP             0       ****    0 ROOT    
@<TRIPOS>MOLECULE
Cpd4-6
76   79    1
SMALL
USER_CHARGES


@<TRIPOS>ATOM
      1 N          -2.7918    2.1199   -1.5518 N.3       1 ****        0.0000 
      2 O          -5.9087    2.5142    0.1094 O.3       1 ****        0.0000 
      3 C           0.4523   -3.4942   -5.1221 C.3       1 ****        0.0000 
      4 N          -0.4339    0.2674    0.4254 N.3       1 ****        0.0000 
      5 O           1.6152   -0.5626   -0.1555 O.3       1 ****        0.0000 
      6 C          -0.8415   -3.0160   -5.3235 C.3       1 ****        0.0000 
      7 N          -0.2535   -0.7882    2.9410 N.3       1 ****        0.0000 
      8 O          -2.5977    1.7556    0.6589 O.3       1 ****        0.0000 
      9 C           1.2021   -3.0164   -4.0462 C.3       1 ****        0.0000 
     10 O           0.8290    1.0685    3.7015 O.3       1 ****        0.0000 
     11 C          -1.3782   -2.0669   -4.4512 C.3       1 ****        0.0000 
     12 O          -4.2995   -3.6579   -0.2625 O.3       1 ****        0.0000 
     13 C           0.6633   -2.0689   -3.1776 C.3       1 ****        0.0000 
     14 C          -0.6571   -3.2882   -0.0968 C.3       1 ****        0.0000 
     15 C          -1.5151   -3.5799    2.1297 C.3       1 ****        0.0000 
     16 C          -4.6865   -0.3116   -1.7100 C.3       1 ****        0.0000 
     17 C          -5.3236   -0.2507    0.6199 C.3       1 ****        0.0000 
     18 C          -1.9234   -3.5195   -0.6238 C.3       1 ****        0.0000 
     19 C          -2.7937   -3.7975    1.6161 C.3       1 ****        0.0000 
     20 C          -4.5130   -1.6919   -1.6316 C.3       1 ****        0.0000 
     21 C          -5.1318   -1.6217    0.7141 C.3       1 ****        0.0000 
     22 C           0.8466   -2.7012    1.8326 C.3       1 ****        0.0000 
     23 C          -4.1095    2.7151   -1.4158 C.3       1 ****        0.0000 
     24 C          -1.2528   -0.5994   -2.3996 C.3       1 ****        0.0000 
     25 C          -0.3728    0.6072   -2.0581 C.3       1 ****        0.0000 
     26 C          -0.4493   -3.2450    1.2855 C.3       1 ****        0.0000 
     27 C          -0.6373   -1.5829   -3.3683 C.3       1 ****        0.0000 
     28 C          -5.0534    0.4184   -0.5792 C.3       1 ****        0.0000 
     29 C          -2.9964   -3.6942    0.2438 C.3       1 ****        0.0000 
     30 C          -4.6789   -2.3244   -0.4026 C.3       1 ****        0.0000 
     31 C          -5.1012    1.9095   -0.5664 C.3       1 ****        0.0000 
     32 C           0.6867   -0.4486    0.6436 C.3       1 ****        0.0000 
     33 C          -2.1040    1.7102   -0.4652 C.3       1 ****        0.0000 
     34 C          -0.1305    0.3166    3.7324 C.3       1 ****        0.0000 
     35 C           0.7835   -1.1648    2.0068 C.3       1 ****        0.0000 
     36 C          -0.6663    1.1990   -0.6735 C.3       1 ****        0.0000 
     37 H           1.7386   -0.8279    2.4220 H         1 ****        0.0000 
     38 H          -0.0173    2.0781   -0.5366 H         1 ****        0.0000 
     39 H           0.8732   -4.2315   -5.7983 H         1 ****        0.0000 
     40 H          -1.4336   -3.3766   -6.1584 H         1 ****        0.0000 
     41 H           2.2110   -3.3832   -3.8822 H         1 ****        0.0000 
     42 H          -2.3863   -1.6945   -4.6155 H         1 ****        0.0000 
     43 H           1.2559   -1.7059   -2.3394 H         1 ****        0.0000 
     44 H           0.1723   -3.0839   -0.7694 H         1 ****        0.0000 
     45 H          -1.3578   -3.6309    3.2050 H         1 ****        0.0000 
     46 H          -4.5110    0.1945   -2.6551 H         1 ****        0.0000 
     47 H          -5.6279    0.3264    1.4880 H         1 ****        0.0000 
     48 H          -2.0914   -3.4929   -1.6981 H         1 ****        0.0000 
     49 H          -3.6363   -3.9934    2.2716 H         1 ****        0.0000 
     50 H          -4.1925   -2.2698   -2.4925 H         1 ****        0.0000 
     51 H          -5.2781   -2.1457    1.6523 H         1 ****        0.0000 
     52 H           1.0778   -3.1360    2.8093 H         1 ****        0.0000 
     53 H           1.6746   -2.9183    1.1541 H         1 ****        0.0000 
     54 H          -4.5306    2.8357   -2.4184 H         1 ****        0.0000 
     55 H          -4.0523    3.7036   -0.9490 H         1 ****        0.0000 
     56 H          -1.4868   -1.1241   -1.4633 H         1 ****        0.0000 
     57 H          -2.2144   -0.2696   -2.8029 H         1 ****        0.0000 
     58 H           0.6797    0.3232   -2.0568 H         1 ****        0.0000 
     59 H          -0.4685    1.3955   -2.8146 H         1 ****        0.0000 
     60 H          -2.3631    2.0861   -2.4649 H         1 ****        0.0000 
     61 H          -1.1016    0.3441    1.1856 H         1 ****        0.0000 
     62 H          -1.1031   -1.3321    3.0115 H         1 ****        0.0000 
     63 O          -1.2084    0.4369    4.5223 O.3       1 ****        0.0000 
     64 C          -1.3698    1.5963    5.4006 C.3       1 ****        0.0000 
     65 C          -2.7254    1.3384    6.0474 C.3       1 ****        0.0000 
     66 H          -2.9618    2.1481    6.7440 H         1 ****        0.0000 
     67 H          -3.5090    1.2913    5.2863 H         1 ****        0.0000 
     68 H          -2.7122    0.3951    6.5995 H         1 ****        0.0000 
     69 C          -0.2662    1.6115    6.4533 C.3       1 ****        0.0000 
     70 H          -0.2341    0.6516    6.9779 H         1 ****        0.0000 
     71 H           0.7073    1.8087    6.0040 H         1 ****        0.0000 
     72 H          -0.4824    2.3953    7.1860 H         1 ****        0.0000 
     73 C          -1.4052    2.8777    4.5737 C.3       1 ****        0.0000 
     74 H          -0.4336    3.0901    4.1274 H         1 ****        0.0000 
     75 H          -2.1546    2.7919    3.7799 H         1 ****        0.0000 
     76 H          -1.6854    3.7130    5.2220 H         1 ****        0.0000 
@<TRIPOS>BOND
     1    1   23 1    
     2    1   33 1    
     3    1   60 1    
     4    2   31 1    
     5    3    6 1    
     6    3    9 1    
     7    3   39 1    
     8    4   32 1    
     9    4   36 1    
    10    4   61 1    
    11    5   32 1    
    12    6   11 1    
    13    6   40 1    
    14    7   34 1    
    15    7   35 1    
    16    7   62 1    
    17    8   33 1    
    18    9   13 1    
    19    9   41 1    
    20   10   34 1    
    21   11   27 1    
    22   11   42 1    
    23   12   29 1    
    24   12   30 1    
    25   13   27 1    
    26   13   43 1    
    27   14   18 1    
    28   14   26 1    
    29   14   44 1    
    30   15   19 1    
    31   15   26 1    
    32   15   45 1    
    33   16   20 1    
    34   16   28 1    
    35   16   46 1    
    36   17   21 1    
    37   17   28 1    
    38   17   47 1    
    39   18   29 1    
    40   18   48 1    
    41   19   29 1    
    42   19   49 1    
    43   20   30 1    
    44   20   50 1    
    45   21   30 1    
    46   21   51 1    
    47   22   26 1    
    48   22   35 1    
    49   22   52 1    
    50   22   53 1    
    51   23   31 1    
    52   23   54 1    
    53   23   55 1    
    54   24   25 1    
    55   24   27 1    
    56   24   56 1    
    57   24   57 1    
    58   25   36 1    
    59   25   58 1    
    60   25   59 1    
    61   28   31 1    
    62   32   35 1    
    63   33   36 1    
    64   34   63 1    
    65   35   37 1    
    66   36   38 1    
    67   63   64 1    
    68   64   65 1    
    69   64   69 1    
    70   64   73 1    
    71   65   66 1    
    72   65   67 1    
    73   65   68 1    
    74   69   70 1    
    75   69   71 1    
    76   69   72 1    
    77   73   74 1    
    78   73   75 1    
    79   73   76 1    
@<TRIPOS>SUBSTRUCTURE
     1 ****        1 GROUP             0       ****    0 ROOT    
@<TRIPOS>MOLECULE
Cpd4-7
76   79    1
SMALL
USER_CHARGES


@<TRIPOS>ATOM
      1 N          -2.9588    2.3638   -0.1509 N.3       1 ****        0.0000 
      2 O          -6.4078    2.4478   -0.3416 O.3       1 ****        0.0000 
      3 C           3.7299    6.2807    0.2424 C.3       1 ****        0.0000 
      4 N          -0.2174    0.1892   -0.0392 N.3       1 ****        0.0000 
      5 O           0.5325   -0.2363    2.0664 O.3       1 ****        0.0000 
      6 C           2.9342    6.0978   -0.8883 C.3       1 ****        0.0000 
      7 N           2.7485   -1.2200    0.3407 N.3       1 ****        0.0000 
      8 O          -1.6575    1.6991   -1.8936 O.3       1 ****        0.0000 
      9 C           3.3250    5.7418    1.4644 C.3       1 ****        0.0000 
     10 O           2.5055    0.0837   -1.5192 O.3       1 ****        0.0000 
     11 C           1.7437    5.3786   -0.7971 C.3       1 ****        0.0000 
     12 O          -4.3595   -3.5902    0.1519 O.3       1 ****        0.0000 
     13 C           2.1321    5.0244    1.5515 C.3       1 ****        0.0000 
     14 C          -1.2283   -2.8954    1.9135 C.3       1 ****        0.0000 
     15 C          -0.7340   -4.0861   -0.1194 C.3       1 ****        0.0000 
     16 C          -4.1767   -0.2205   -1.2708 C.3       1 ****        0.0000 
     17 C          -6.0304   -0.3386    0.2777 C.3       1 ****        0.0000 
     18 C          -2.5892   -3.0380    1.6696 C.3       1 ****        0.0000 
     19 C          -2.0976   -4.2427   -0.3734 C.3       1 ****        0.0000 
     20 C          -3.9368   -1.5727   -1.0905 C.3       1 ****        0.0000 
     21 C          -5.7853   -1.6943    0.4802 C.3       1 ****        0.0000 
     22 C           1.1597   -2.9482    1.1070 C.3       1 ****        0.0000 
     23 C          -4.1188    2.7393   -0.9398 C.3       1 ****        0.0000 
     24 C           0.0895    3.9734    0.4969 C.3       1 ****        0.0000 
     25 C           0.4520    2.5226    0.1683 C.3       1 ****        0.0000 
     26 C          -0.2854   -3.3684    0.9940 C.3       1 ****        0.0000 
     27 C           1.3285    4.8334    0.4223 C.3       1 ****        0.0000 
     28 C          -5.1998    0.4161   -0.5583 C.3       1 ****        0.0000 
     29 C          -3.0095   -3.6602    0.4976 C.3       1 ****        0.0000 
     30 C          -4.7047   -2.2887   -0.1687 C.3       1 ****        0.0000 
     31 C          -5.3569    1.8936   -0.6055 C.3       1 ****        0.0000 
     32 C           0.5005   -0.5123    0.8693 C.3       1 ****        0.0000 
     33 C          -1.8206    1.8654   -0.6879 C.3       1 ****        0.0000 
     34 C           3.1420   -0.2323   -0.5263 C.3       1 ****        0.0000 
     35 C           1.3589   -1.6565    0.3044 C.3       1 ****        0.0000 
     36 C          -0.7053    1.5201    0.2931 C.3       1 ****        0.0000 
     37 H           1.1006   -1.8362   -0.7430 H         1 ****        0.0000 
     38 H          -1.0763    1.4926    1.3218 H         1 ****        0.0000 
     39 H           4.6576    6.8402    0.1730 H         1 ****        0.0000 
     40 H           3.2405    6.5153   -1.8429 H         1 ****        0.0000 
     41 H           3.9366    5.8827    2.3506 H         1 ****        0.0000 
     42 H           1.1284    5.2321   -1.6829 H         1 ****        0.0000 
     43 H           1.8225    4.6025    2.5043 H         1 ****        0.0000 
     44 H          -0.8915   -2.3543    2.7930 H         1 ****        0.0000 
     45 H          -0.0117   -4.4842   -0.8275 H         1 ****        0.0000 
     46 H          -3.5434    0.3390   -1.9529 H         1 ****        0.0000 
     47 H          -6.8337    0.1598    0.8131 H         1 ****        0.0000 
     48 H          -3.3283   -2.6139    2.3428 H         1 ****        0.0000 
     49 H          -2.4526   -4.7422   -1.2688 H         1 ****        0.0000 
     50 H          -3.1212   -2.0616   -1.6115 H         1 ****        0.0000 
     51 H          -6.3773   -2.2796    1.1754 H         1 ****        0.0000 
     52 H           1.4280   -2.7638    2.1530 H         1 ****        0.0000 
     53 H           1.8334   -3.7104    0.7033 H         1 ****        0.0000 
     54 H          -3.8506    2.6150   -1.9935 H         1 ****        0.0000 
     55 H          -4.3845    3.7840   -0.7672 H         1 ****        0.0000 
     56 H          -0.6641    4.3415   -0.2094 H         1 ****        0.0000 
     57 H          -0.3468    4.0289    1.5015 H         1 ****        0.0000 
     58 H           0.8427    2.4584   -0.8550 H         1 ****        0.0000 
     59 H           1.2484    2.1822    0.8408 H         1 ****        0.0000 
     60 H          -3.0162    2.4516    0.8552 H         1 ****        0.0000 
     61 H          -0.0065    0.0383   -1.0212 H         1 ****        0.0000 
     62 H           3.2052   -1.2169    1.2447 H         1 ****        0.0000 
     63 O           4.3051    0.2998   -0.1346 O.3       1 ****        0.0000 
     64 C           4.9486    1.3638   -0.9106 C.3       1 ****        0.0000 
     65 C           4.0461    2.5923   -0.9841 C.3       1 ****        0.0000 
     66 H           4.6113    3.4229   -1.4175 H         1 ****        0.0000 
     67 H           3.1682    2.4085   -1.6049 H         1 ****        0.0000 
     68 H           3.7199    2.8974    0.0169 H         1 ****        0.0000 
     69 C           6.1964    1.6658   -0.0877 C.3       1 ****        0.0000 
     70 H           5.9193    2.0060    0.9131 H         1 ****        0.0000 
     71 H           6.8203    0.7727    0.0025 H         1 ****        0.0000 
     72 H           6.7773    2.4529   -0.5763 H         1 ****        0.0000 
     73 C           5.3274    0.8388   -2.2921 C.3       1 ****        0.0000 
     74 H           5.9201   -0.0760   -2.1975 H         1 ****        0.0000 
     75 H           4.4413    0.6329   -2.8934 H         1 ****        0.0000 
     76 H           5.9347    1.5897   -2.8051 H         1 ****        0.0000 
@<TRIPOS>BOND
     1    1   23 1    
     2    1   33 1    
     3    1   60 1    
     4    2   31 1    
     5    3    6 1    
     6    3    9 1    
     7    3   39 1    
     8    4   32 1    
     9    4   36 1    
    10    4   61 1    
    11    5   32 1    
    12    6   11 1    
    13    6   40 1    
    14    7   34 1    
    15    7   35 1    
    16    7   62 1    
    17    8   33 1    
    18    9   13 1    
    19    9   41 1    
    20   10   34 1    
    21   11   27 1    
    22   11   42 1    
    23   12   29 1    
    24   12   30 1    
    25   13   27 1    
    26   13   43 1    
    27   14   18 1    
    28   14   26 1    
    29   14   44 1    
    30   15   19 1    
    31   15   26 1    
    32   15   45 1    
    33   16   20 1    
    34   16   28 1    
    35   16   46 1    
    36   17   21 1    
    37   17   28 1    
    38   17   47 1    
    39   18   29 1    
    40   18   48 1    
    41   19   29 1    
    42   19   49 1    
    43   20   30 1    
    44   20   50 1    
    45   21   30 1    
    46   21   51 1    
    47   22   26 1    
    48   22   35 1    
    49   22   52 1    
    50   22   53 1    
    51   23   31 1    
    52   23   54 1    
    53   23   55 1    
    54   24   25 1    
    55   24   27 1    
    56   24   56 1    
    57   24   57 1    
    58   25   36 1    
    59   25   58 1    
    60   25   59 1    
    61   28   31 1    
    62   32   35 1    
    63   33   36 1    
    64   34   63 1    
    65   35   37 1    
    66   36   38 1    
    67   63   64 1    
    68   64   65 1    
    69   64   69 1    
    70   64   73 1    
    71   65   66 1    
    72   65   67 1    
    73   65   68 1    
    74   69   70 1    
    75   69   71 1    
    76   69   72 1    
    77   73   74 1    
    78   73   75 1    
    79   73   76 1    
@<TRIPOS>SUBSTRUCTURE
     1 ****        1 GROUP             0       ****    0 ROOT    
@<TRIPOS>MOLECULE
Cpd4-8
76   79    1
SMALL
USER_CHARGES


@<TRIPOS>ATOM
      1 N          -3.0286    2.3372   -0.1235 N.3       1 ****        0.0000 
      2 O          -6.4438    2.4889   -0.5032 O.3       1 ****        0.0000 
      3 C           3.7608    5.8976    1.0862 C.3       1 ****        0.0000 
      4 N          -0.1470    0.2019    0.0730 N.3       1 ****        0.0000 
      5 O           0.7732   -0.2755    2.0904 O.3       1 ****        0.0000 
      6 C           2.5649    6.3271    0.5121 C.3       1 ****        0.0000 
      7 N           2.8705   -1.3344    0.2244 N.3       1 ****        0.0000 
      8 O          -1.6634    1.4738   -1.7266 O.3       1 ****        0.0000 
      9 C           4.0147    4.5305    1.2117 C.3       1 ****        0.0000 
     10 O           4.6728   -0.2379   -0.6294 O.3       1 ****        0.0000 
     11 C           1.6289    5.3937    0.0661 C.3       1 ****        0.0000 
     12 O          -4.3698   -3.5307    0.2316 O.3       1 ****        0.0000 
     13 C           3.0762    3.6038    0.7648 C.3       1 ****        0.0000 
     14 C          -1.1669   -2.8039    1.8509 C.3       1 ****        0.0000 
     15 C          -0.7587   -4.0609   -0.1610 C.3       1 ****        0.0000 
     16 C          -4.2538   -0.2304   -1.3460 C.3       1 ****        0.0000 
     17 C          -6.0567   -0.2853    0.2635 C.3       1 ****        0.0000 
     18 C          -2.5369   -2.9313    1.6558 C.3       1 ****        0.0000 
     19 C          -2.1322   -4.2059   -0.3637 C.3       1 ****        0.0000 
     20 C          -4.0015   -1.5717   -1.1143 C.3       1 ****        0.0000 
     21 C          -5.7973   -1.6302    0.5188 C.3       1 ****        0.0000 
     22 C           1.2021   -2.9585    0.9921 C.3       1 ****        0.0000 
     23 C          -4.1191    2.7246   -1.0019 C.3       1 ****        0.0000 
     24 C           0.8495    3.0056   -0.2550 C.3       1 ****        0.0000 
     25 C          -0.0178    2.5342    0.9186 C.3       1 ****        0.0000 
     26 C          -0.2621   -3.3214    0.9159 C.3       1 ****        0.0000 
     27 C           1.8719    4.0231    0.1873 C.3       1 ****        0.0000 
     28 C          -5.2550    0.4342   -0.6284 C.3       1 ****        0.0000 
     29 C          -3.0058   -3.5884    0.5221 C.3       1 ****        0.0000 
     30 C          -4.7336   -2.2481   -0.1363 C.3       1 ****        0.0000 
     31 C          -5.3937    1.9134   -0.7177 C.3       1 ****        0.0000 
     32 C           0.6623   -0.5043    0.8873 C.3       1 ****        0.0000 
     33 C          -1.9059    1.7108   -0.5458 C.3       1 ****        0.0000 
     34 C           3.4835   -0.5062   -0.6700 C.3       1 ****        0.0000 
     35 C           1.4528   -1.6461    0.2288 C.3       1 ****        0.0000 
     36 C          -0.9163    1.3336    0.5558 C.3       1 ****        0.0000 
     37 H           1.1320   -1.7695   -0.8099 H         1 ****        0.0000 
     38 H          -1.4604    1.0172    1.4526 H         1 ****        0.0000 
     39 H           4.4922    6.6226    1.4307 H         1 ****        0.0000 
     40 H           2.3611    7.3889    0.4072 H         1 ****        0.0000 
     41 H           4.9460    4.1872    1.6514 H         1 ****        0.0000 
     42 H           0.6993    5.7325   -0.3858 H         1 ****        0.0000 
     43 H           3.2802    2.5378    0.8566 H         1 ****        0.0000 
     44 H          -0.7913   -2.2497    2.7062 H         1 ****        0.0000 
     45 H          -0.0668   -4.4943   -0.8789 H         1 ****        0.0000 
     46 H          -3.6439    0.3019   -2.0678 H         1 ****        0.0000 
     47 H          -6.8434    0.2325    0.8046 H         1 ****        0.0000 
     48 H          -3.2467   -2.4794    2.3427 H         1 ****        0.0000 
     49 H          -2.5250   -4.7316   -1.2271 H         1 ****        0.0000 
     50 H          -3.1997   -2.0794   -1.6405 H         1 ****        0.0000 
     51 H          -6.3631   -2.1869    1.2579 H         1 ****        0.0000 
     52 H           1.5129   -2.8223    2.0333 H         1 ****        0.0000 
     53 H           1.8243   -3.7374    0.5408 H         1 ****        0.0000 
     54 H          -3.7858    2.5654   -2.0322 H         1 ****        0.0000 
     55 H          -4.3660    3.7797   -0.8713 H         1 ****        0.0000 
     56 H           1.3629    2.1309   -0.6740 H         1 ****        0.0000 
     57 H           0.2211    3.4235   -1.0497 H         1 ****        0.0000 
     58 H           0.6232    2.2175    1.7465 H         1 ****        0.0000 
     59 H          -0.6435    3.3566    1.2855 H         1 ****        0.0000 
     60 H          -3.1621    2.4548    0.8727 H         1 ****        0.0000 
     61 H          -0.1199    0.0568   -0.9307 H         1 ****        0.0000 
     62 H           3.4206   -1.5599    1.0425 H         1 ****        0.0000 
     63 O           2.6071   -0.0516   -1.5816 O.3       1 ****        0.0000 
     64 C           3.0626    0.5919   -2.8183 C.3       1 ****        0.0000 
     65 C           3.7693    1.9113   -2.5210 C.3       1 ****        0.0000 
     66 H           4.0018    2.4034   -3.4696 H         1 ****        0.0000 
     67 H           3.1213    2.5776   -1.9445 H         1 ****        0.0000 
     68 H           4.6949    1.7494   -1.9693 H         1 ****        0.0000 
     69 C           3.9540   -0.3745   -3.5916 C.3       1 ****        0.0000 
     70 H           4.8976   -0.5441   -3.0702 H         1 ****        0.0000 
     71 H           3.4415   -1.3301   -3.7332 H         1 ****        0.0000 
     72 H           4.1700    0.0483   -4.5765 H         1 ****        0.0000 
     73 C           1.7538    0.8367   -3.5604 C.3       1 ****        0.0000 
     74 H           1.2414   -0.1095   -3.7562 H         1 ****        0.0000 
     75 H           1.0895    1.4780   -2.9716 H         1 ****        0.0000 
     76 H           1.9564    1.3287   -4.5150 H         1 ****        0.0000 
@<TRIPOS>BOND
     1    1   23 1    
     2    1   33 1    
     3    1   60 1    
     4    2   31 1    
     5    3    6 1    
     6    3    9 1    
     7    3   39 1    
     8    4   32 1    
     9    4   36 1    
    10    4   61 1    
    11    5   32 1    
    12    6   11 1    
    13    6   40 1    
    14    7   34 1    
    15    7   35 1    
    16    7   62 1    
    17    8   33 1    
    18    9   13 1    
    19    9   41 1    
    20   10   34 1    
    21   11   27 1    
    22   11   42 1    
    23   12   29 1    
    24   12   30 1    
    25   13   27 1    
    26   13   43 1    
    27   14   18 1    
    28   14   26 1    
    29   14   44 1    
    30   15   19 1    
    31   15   26 1    
    32   15   45 1    
    33   16   20 1    
    34   16   28 1    
    35   16   46 1    
    36   17   21 1    
    37   17   28 1    
    38   17   47 1    
    39   18   29 1    
    40   18   48 1    
    41   19   29 1    
    42   19   49 1    
    43   20   30 1    
    44   20   50 1    
    45   21   30 1    
    46   21   51 1    
    47   22   26 1    
    48   22   35 1    
    49   22   52 1    
    50   22   53 1    
    51   23   31 1    
    52   23   54 1    
    53   23   55 1    
    54   24   25 1    
    55   24   27 1    
    56   24   56 1    
    57   24   57 1    
    58   25   36 1    
    59   25   58 1    
    60   25   59 1    
    61   28   31 1    
    62   32   35 1    
    63   33   36 1    
    64   34   63 1    
    65   35   37 1    
    66   36   38 1    
    67   63   64 1    
    68   64   65 1    
    69   64   69 1    
    70   64   73 1    
    71   65   66 1    
    72   65   67 1    
    73   65   68 1    
    74   69   70 1    
    75   69   71 1    
    76   69   72 1    
    77   73   74 1    
    78   73   75 1    
    79   73   76 1    
@<TRIPOS>SUBSTRUCTURE
     1 ****        1 GROUP             0       ****    0 ROOT    
@<TRIPOS>MOLECULE
Cpd4-9
76   79    1
SMALL
USER_CHARGES


@<TRIPOS>ATOM
      1 N          -3.2087    2.3120    0.4824 N.3       1 ****        0.0000 
      2 O          -5.5094    2.1794   -2.2240 O.3       1 ****        0.0000 
      3 C          -2.4632    3.1943    5.3837 C.3       1 ****        0.0000 
      4 N          -0.2910    0.2215    0.1779 N.3       1 ****        0.0000 
      5 O           0.9055   -0.1981    2.0558 O.3       1 ****        0.0000 
      6 C          -3.0274    4.0818    4.4681 C.3       1 ****        0.0000 
      7 N           2.8116   -1.1615    0.1807 N.3       1 ****        0.0000 
      8 O          -2.1667    1.4698   -1.3386 O.3       1 ****        0.0000 
      9 C          -1.3023    2.5004    5.0415 C.3       1 ****        0.0000 
     10 O           3.3611   -2.3442   -1.6882 O.3       1 ****        0.0000 
     11 C          -2.4290    4.2708    3.2215 C.3       1 ****        0.0000 
     12 O          -4.4353   -3.5426    0.4159 O.3       1 ****        0.0000 
     13 C          -0.7072    2.6921    3.7952 C.3       1 ****        0.0000 
     14 C          -1.1025   -3.0595    1.8829 C.3       1 ****        0.0000 
     15 C          -0.8639   -3.7346   -0.4153 C.3       1 ****        0.0000 
     16 C          -5.0052   -0.6092   -1.7001 C.3       1 ****        0.0000 
     17 C          -5.1422    0.0398    0.6267 C.3       1 ****        0.0000 
     18 C          -2.4840   -3.2112    1.7904 C.3       1 ****        0.0000 
     19 C          -2.2442   -3.8833   -0.5233 C.3       1 ****        0.0000 
     20 C          -4.8531   -1.9401   -1.3252 C.3       1 ****        0.0000 
     21 C          -5.0186   -1.2904    1.0098 C.3       1 ****        0.0000 
     22 C           1.1787   -2.9175    0.8138 C.3       1 ****        0.0000 
     23 C          -4.3301    2.8353   -0.2727 C.3       1 ****        0.0000 
     24 C          -0.6218    3.8209    1.5147 C.3       1 ****        0.0000 
     25 C          -0.0282    2.5708    0.8540 C.3       1 ****        0.0000 
     26 C          -0.2819   -3.2828    0.7734 C.3       1 ****        0.0000 
     27 C          -1.2609    3.5849    2.8677 C.3       1 ****        0.0000 
     28 C          -5.0935    0.3895   -0.7258 C.3       1 ****        0.0000 
     29 C          -3.0453   -3.5782    0.5723 C.3       1 ****        0.0000 
     30 C          -4.8035   -2.2588    0.0303 C.3       1 ****        0.0000 
     31 C          -5.0343    1.8091   -1.1687 C.3       1 ****        0.0000 
     32 C           0.6442   -0.4474    0.8781 C.3       1 ****        0.0000 
     33 C          -2.1737    1.6991   -0.1316 C.3       1 ****        0.0000 
     34 C           3.6929   -1.6872   -0.7144 C.3       1 ****        0.0000 
     35 C           1.4137   -1.5469    0.1434 C.3       1 ****        0.0000 
     36 C          -0.9826    1.3602    0.7565 C.3       1 ****        0.0000 
     37 H           1.1109   -1.5981   -0.9061 H         1 ****        0.0000 
     38 H          -1.3261    1.0787    1.7590 H         1 ****        0.0000 
     39 H          -2.9254    3.0423    6.3533 H         1 ****        0.0000 
     40 H          -3.9319    4.6268    4.7214 H         1 ****        0.0000 
     41 H          -0.8586    1.8026    5.7447 H         1 ****        0.0000 
     42 H          -2.8728    4.9664    2.5113 H         1 ****        0.0000 
     43 H           0.1855    2.1269    3.5374 H         1 ****        0.0000 
     44 H          -0.6595   -2.7258    2.8171 H         1 ****        0.0000 
     45 H          -0.2335   -3.9405   -1.2773 H         1 ****        0.0000 
     46 H          -4.9896   -0.3247   -2.7468 H         1 ****        0.0000 
     47 H          -5.2545    0.8046    1.3894 H         1 ****        0.0000 
     48 H          -3.1261   -3.0064    2.6402 H         1 ****        0.0000 
     49 H          -2.7049   -4.1929   -1.4557 H         1 ****        0.0000 
     50 H          -4.7149   -2.7208   -2.0645 H         1 ****        0.0000 
     51 H          -5.0251   -1.5759    2.0548 H         1 ****        0.0000 
     52 H           1.5371   -2.8567    1.8461 H         1 ****        0.0000 
     53 H           1.7886   -3.6502    0.2752 H         1 ****        0.0000 
     54 H          -4.0183    3.6504   -0.9325 H         1 ****        0.0000 
     55 H          -5.0591    3.2346    0.4399 H         1 ****        0.0000 
     56 H           0.1876    4.5529    1.6251 H         1 ****        0.0000 
     57 H          -1.3595    4.2848    0.8507 H         1 ****        0.0000 
     58 H           0.3054    2.8207   -0.1593 H         1 ****        0.0000 
     59 H           0.8512    2.2298    1.4078 H         1 ****        0.0000 
     60 H          -3.1682    2.4676    1.4828 H         1 ****        0.0000 
     61 H          -0.4551    0.0319   -0.8045 H         1 ****        0.0000 
     62 H           3.1746   -0.7846    1.0480 H         1 ****        0.0000 
     63 O           4.9500   -1.3578   -0.3774 O.3       1 ****        0.0000 
     64 C           6.0825   -1.7796   -1.2002 C.3       1 ****        0.0000 
     65 C           5.9727   -1.1727   -2.5960 C.3       1 ****        0.0000 
     66 H           6.8983   -1.3713   -3.1450 H         1 ****        0.0000 
     67 H           5.1362   -1.6000   -3.1504 H         1 ****        0.0000 
     68 H           5.8428   -0.0891   -2.5247 H         1 ****        0.0000 
     69 C           7.2755   -1.1922   -0.4545 C.3       1 ****        0.0000 
     70 H           7.1914   -0.1045   -0.3954 H         1 ****        0.0000 
     71 H           7.3276   -1.5970    0.5601 H         1 ****        0.0000 
     72 H           8.2002   -1.4458   -0.9803 H         1 ****        0.0000 
     73 C           6.1678   -3.3028   -1.2339 C.3       1 ****        0.0000 
     74 H           6.1768   -3.7002   -0.2144 H         1 ****        0.0000 
     75 H           5.3304   -3.7356   -1.7822 H         1 ****        0.0000 
     76 H           7.1011   -3.5960   -1.7233 H         1 ****        0.0000 
@<TRIPOS>BOND
     1    1   23 1    
     2    1   33 1    
     3    1   60 1    
     4    2   31 1    
     5    3    6 1    
     6    3    9 1    
     7    3   39 1    
     8    4   32 1    
     9    4   36 1    
    10    4   61 1    
    11    5   32 1    
    12    6   11 1    
    13    6   40 1    
    14    7   34 1    
    15    7   35 1    
    16    7   62 1    
    17    8   33 1    
    18    9   13 1    
    19    9   41 1    
    20   10   34 1    
    21   11   27 1    
    22   11   42 1    
    23   12   29 1    
    24   12   30 1    
    25   13   27 1    
    26   13   43 1    
    27   14   18 1    
    28   14   26 1    
    29   14   44 1    
    30   15   19 1    
    31   15   26 1    
    32   15   45 1    
    33   16   20 1    
    34   16   28 1    
    35   16   46 1    
    36   17   21 1    
    37   17   28 1    
    38   17   47 1    
    39   18   29 1    
    40   18   48 1    
    41   19   29 1    
    42   19   49 1    
    43   20   30 1    
    44   20   50 1    
    45   21   30 1    
    46   21   51 1    
    47   22   26 1    
    48   22   35 1    
    49   22   52 1    
    50   22   53 1    
    51   23   31 1    
    52   23   54 1    
    53   23   55 1    
    54   24   25 1    
    55   24   27 1    
    56   24   56 1    
    57   24   57 1    
    58   25   36 1    
    59   25   58 1    
    60   25   59 1    
    61   28   31 1    
    62   32   35 1    
    63   33   36 1    
    64   34   63 1    
    65   35   37 1    
    66   36   38 1    
    67   63   64 1    
    68   64   65 1    
    69   64   69 1    
    70   64   73 1    
    71   65   66 1    
    72   65   67 1    
    73   65   68 1    
    74   69   70 1    
    75   69   71 1    
    76   69   72 1    
    77   73   74 1    
    78   73   75 1    
    79   73   76 1    
@<TRIPOS>SUBSTRUCTURE
     1 ****        1 GROUP             0       ****    0 ROOT    
@<TRIPOS>MOLECULE
Cpd4-10
76   79    1
SMALL
USER_CHARGES


@<TRIPOS>ATOM
      1 N          -3.0070    2.2691   -0.1001 N.3       1 ****        0.0000 
      2 O          -6.4357    2.4749   -0.4222 O.3       1 ****        0.0000 
      3 C          -2.8430    3.4502    4.7566 C.3       1 ****        0.0000 
      4 N          -0.0962    0.2148    0.0258 N.3       1 ****        0.0000 
      5 O           0.7829   -0.2141    2.0697 O.3       1 ****        0.0000 
      6 C          -3.2936    4.2534    3.7107 C.3       1 ****        0.0000 
      7 N           2.8935   -1.3989    0.3095 N.3       1 ****        0.0000 
      8 O          -1.6432    1.5464   -1.7739 O.3       1 ****        0.0000 
      9 C          -1.6266    2.7778    4.6325 C.3       1 ****        0.0000 
     10 O           4.7023   -0.1844   -0.3565 O.3       1 ****        0.0000 
     11 C          -2.5288    4.3811    2.5497 C.3       1 ****        0.0000 
     12 O          -4.3864   -3.5628    0.1778 O.3       1 ****        0.0000 
     13 C          -0.8656    2.9081    3.4720 C.3       1 ****        0.0000 
     14 C          -1.2245   -2.7589    1.8405 C.3       1 ****        0.0000 
     15 C          -0.7659   -4.0811   -0.1196 C.3       1 ****        0.0000 
     16 C          -4.2558   -0.2351   -1.3330 C.3       1 ****        0.0000 
     17 C          -6.0831   -0.3240    0.2486 C.3       1 ****        0.0000 
     18 C          -2.5893   -2.9021    1.6208 C.3       1 ****        0.0000 
     19 C          -2.1336   -4.2383   -0.3479 C.3       1 ****        0.0000 
     20 C          -4.0122   -1.5830   -1.1321 C.3       1 ****        0.0000 
     21 C          -5.8313   -1.6755    0.4753 C.3       1 ****        0.0000 
     22 C           1.1657   -2.9517    1.0556 C.3       1 ****        0.0000 
     23 C          -4.1130    2.7010   -0.9353 C.3       1 ****        0.0000 
     24 C          -0.4854    3.8778    1.1501 C.3       1 ****        0.0000 
     25 C           0.1674    2.5883    0.6367 C.3       1 ****        0.0000 
     26 C          -0.2966   -3.3052    0.9455 C.3       1 ****        0.0000 
     27 C          -1.3049    3.7150    2.4151 C.3       1 ****        0.0000 
     28 C          -5.2652    0.4143   -0.6130 C.3       1 ****        0.0000 
     29 C          -3.0293   -3.6006    0.4989 C.3       1 ****        0.0000 
     30 C          -4.7584   -2.2778   -0.1763 C.3       1 ****        0.0000 
     31 C          -5.3921    1.8956   -0.6585 C.3       1 ****        0.0000 
     32 C           0.6868   -0.4830    0.8736 C.3       1 ****        0.0000 
     33 C          -1.8615    1.7352   -0.5795 C.3       1 ****        0.0000 
     34 C           3.5265   -0.4832   -0.4808 C.3       1 ****        0.0000 
     35 C           1.4655   -1.6647    0.2686 C.3       1 ****        0.0000 
     36 C          -0.8031    1.4028    0.4682 C.3       1 ****        0.0000 
     37 H           1.1737   -1.8069   -0.7767 H         1 ****        0.0000 
     38 H          -1.2732    1.1734    1.4300 H         1 ****        0.0000 
     39 H          -3.4366    3.3454    5.6594 H         1 ****        0.0000 
     40 H          -4.2405    4.7782    3.7927 H         1 ****        0.0000 
     41 H          -1.2696    2.1454    5.4401 H         1 ****        0.0000 
     42 H          -2.8850    5.0087    1.7352 H         1 ****        0.0000 
     43 H           0.0714    2.3623    3.3852 H         1 ****        0.0000 
     44 H          -0.8706   -2.1740    2.6849 H         1 ****        0.0000 
     45 H          -0.0555   -4.5347   -0.8061 H         1 ****        0.0000 
     46 H          -3.6303    0.3138   -2.0307 H         1 ****        0.0000 
     47 H          -6.8749    0.1854    0.7913 H         1 ****        0.0000 
     48 H          -3.3157   -2.4308    2.2765 H         1 ****        0.0000 
     49 H          -2.5044   -4.7922   -1.2042 H         1 ****        0.0000 
     50 H          -3.2039   -2.0824   -1.6554 H         1 ****        0.0000 
     51 H          -6.4065   -2.2457    1.1974 H         1 ****        0.0000 
     52 H           1.4448   -2.7899    2.1029 H         1 ****        0.0000 
     53 H           1.7937   -3.7492    0.6480 H         1 ****        0.0000 
     54 H          -3.8066    2.5809   -1.9789 H         1 ****        0.0000 
     55 H          -4.3453    3.7534   -0.7569 H         1 ****        0.0000 
     56 H           0.3111    4.6099    1.3287 H         1 ****        0.0000 
     57 H          -1.1234    4.3090    0.3706 H         1 ****        0.0000 
     58 H           0.6353    2.7837   -0.3342 H         1 ****        0.0000 
     59 H           0.9585    2.2555    1.3170 H         1 ****        0.0000 
     60 H          -3.0927    2.3933    0.9027 H         1 ****        0.0000 
     61 H          -0.0315    0.0606   -0.9756 H         1 ****        0.0000 
     62 H           3.4099   -1.6661    1.1373 H         1 ****        0.0000 
     63 O           2.6839    0.0075   -1.4037 O.3       1 ****        0.0000 
     64 C           3.1348    0.9680   -2.4102 C.3       1 ****        0.0000 
     65 C           3.6517    2.2367   -1.7380 C.3       1 ****        0.0000 
     66 H           3.7995    3.0064   -2.5005 H         1 ****        0.0000 
     67 H           2.9161    2.6060   -1.0167 H         1 ****        0.0000 
     68 H           4.5960    2.0595   -1.2247 H         1 ****        0.0000 
     69 C           4.1823    0.3204   -3.3090 C.3       1 ****        0.0000 
     70 H           5.0970    0.1041   -2.7545 H         1 ****        0.0000 
     71 H           3.7913   -0.6070   -3.7374 H         1 ****        0.0000 
     72 H           4.4213    1.0039   -4.1295 H         1 ****        0.0000 
     73 C           1.8557    1.2555   -3.1877 C.3       1 ****        0.0000 
     74 H           1.4566    0.3330   -3.6215 H         1 ****        0.0000 
     75 H           1.0919    1.6917   -2.5358 H         1 ****        0.0000 
     76 H           2.0635    1.9599   -3.9976 H         1 ****        0.0000 
@<TRIPOS>BOND
     1    1   23 1    
     2    1   33 1    
     3    1   60 1    
     4    2   31 1    
     5    3    6 1    
     6    3    9 1    
     7    3   39 1    
     8    4   32 1    
     9    4   36 1    
    10    4   61 1    
    11    5   32 1    
    12    6   11 1    
    13    6   40 1    
    14    7   34 1    
    15    7   35 1    
    16    7   62 1    
    17    8   33 1    
    18    9   13 1    
    19    9   41 1    
    20   10   34 1    
    21   11   27 1    
    22   11   42 1    
    23   12   29 1    
    24   12   30 1    
    25   13   27 1    
    26   13   43 1    
    27   14   18 1    
    28   14   26 1    
    29   14   44 1    
    30   15   19 1    
    31   15   26 1    
    32   15   45 1    
    33   16   20 1    
    34   16   28 1    
    35   16   46 1    
    36   17   21 1    
    37   17   28 1    
    38   17   47 1    
    39   18   29 1    
    40   18   48 1    
    41   19   29 1    
    42   19   49 1    
    43   20   30 1    
    44   20   50 1    
    45   21   30 1    
    46   21   51 1    
    47   22   26 1    
    48   22   35 1    
    49   22   52 1    
    50   22   53 1    
    51   23   31 1    
    52   23   54 1    
    53   23   55 1    
    54   24   25 1    
    55   24   27 1    
    56   24   56 1    
    57   24   57 1    
    58   25   36 1    
    59   25   58 1    
    60   25   59 1    
    61   28   31 1    
    62   32   35 1    
    63   33   36 1    
    64   34   63 1    
    65   35   37 1    
    66   36   38 1    
    67   63   64 1    
    68   64   65 1    
    69   64   69 1    
    70   64   73 1    
    71   65   66 1    
    72   65   67 1    
    73   65   68 1    
    74   69   70 1    
    75   69   71 1    
    76   69   72 1    
    77   73   74 1    
    78   73   75 1    
    79   73   76 1    
@<TRIPOS>SUBSTRUCTURE
     1 ****        1 GROUP             0       ****    0 ROOT    
