@<TRIPOS>MOLECULE
Cpd5-500
92   93    1
SMALL
USER_CHARGES


@<TRIPOS>ATOM
      1 C1         21.6556   23.0823   30.6185 C.3       1 UNK         0.0000 
      2 H2         21.4192   22.4281   31.4664 H         1 UNK         0.0000 
      3 H3         20.9659   23.9346   30.6584 H         1 UNK         0.0000 
      4 H4         21.5551   22.5327   29.6744 H         1 UNK         0.0000 
      5 C5         23.0617   23.6169   30.8481 C.3       1 UNK         0.0000 
      6 C6         24.1339   22.6324   31.3324 C.3       1 UNK         0.0000 
      7 H7         25.1186   23.1041   31.4307 H         1 UNK         0.0000 
      8 H8         23.8118   22.2385   32.3040 H         1 UNK         0.0000 
      9 H9         24.2761   21.7973   30.6370 H         1 UNK         0.0000 
     10 C10        22.9584   24.9213   31.7571 C.3       1 UNK         0.0000 
     11 H11        22.3295   24.7653   32.6423 H         1 UNK         0.0000 
     12 H12        23.9280   25.2713   32.1302 H         1 UNK         0.0000 
     13 H13        22.4789   25.7070   31.1594 H         1 UNK         0.0000 
     14 O14        23.3900   24.0805   29.5096 O.3       1 UNK         0.0000 
     15 C15        24.5906   24.6891   29.3200 C.2       1 UNK         0.0000 
     16 O16        25.3262   24.9655   30.2255 O.2       1 UNK         0.0000 
     17 N17        24.5287   25.2773   28.1080 N.am      1 UNK         0.0000 
     18 H18        23.6243   25.0809   27.6969 H         1 UNK         0.0000 
     19 C19        25.6269   26.0210   27.5193 C.3       1 UNK         0.0000 
     20 C20        25.1675   27.4501   27.2921 C.2       1 UNK         0.0000 
     21 N21        25.9988   28.4546   27.5765 N.am      1 UNK         0.0000 
     22 H22        26.9606   28.3071   27.8597 H         1 UNK         0.0000 
     23 O23        24.0492   27.7391   26.8480 O.2       1 UNK         0.0000 
     24 H24        26.5124   25.9628   28.1633 H         1 UNK         0.0000 
     25 C25        25.9690   25.2819   26.1848 C.3       1 UNK         0.0000 
     26 H26        25.1861   25.1459   25.4296 H         1 UNK         0.0000 
     27 H27        26.1497   24.2258   26.4195 H         1 UNK         0.0000 
     28 C28        27.2036   25.9949   25.5784 C.ar      1 UNK         0.0000 
     29 C29        27.0320   26.7103   24.3503 C.ar      1 UNK         0.0000 
     30 C30        28.1772   27.3282   23.8076 C.ar      1 UNK         0.0000 
     31 H31        28.0967   27.9307   22.9085 H         1 UNK         0.0000 
     32 H32        26.1195   26.6462   23.7656 H         1 UNK         0.0000 
     33 C33        28.4848   25.9563   26.1460 C.ar      1 UNK         0.0000 
     34 H34        28.6630   25.5056   27.1185 H         1 UNK         0.0000 
     35 C35        29.4957   26.8349   25.6549 C.ar      1 UNK         0.0000 
     36 H36        30.4533   26.8861   26.1638 H         1 UNK         0.0000 
     37 C37        29.3795   27.4727   24.4398 C.ar      1 UNK         0.0000 
     38 O38        30.3617   28.1996   23.9430 O.3       1 UNK         0.0000 
     39 C39        30.6027   29.3257   24.6014 C.ar      1 UNK         0.0000 
     40 C40        29.5185   30.1753   24.6485 C.ar      1 UNK         0.0000 
     41 C41        29.3939   31.0922   25.6712 C.ar      1 UNK         0.0000 
     42 H42        28.4745   31.6704   25.6932 H         1 UNK         0.0000 
     43 H43        28.6954   30.0336   23.9541 H         1 UNK         0.0000 
     44 C44        31.7162   29.5004   25.5232 C.ar      1 UNK         0.0000 
     45 H45        32.4627   28.7176   25.6213 H         1 UNK         0.0000 
     46 C46        31.5211   30.3738   26.5788 C.ar      1 UNK         0.0000 
     47 H47        32.1660   30.3321   27.4519 H         1 UNK         0.0000 
     48 C48        30.3298   31.1072   26.7583 C.ar      1 UNK         0.0000 
     49 C49        29.9578   31.7099   28.0333 C.2       1 UNK         0.0000 
     50 O50        30.8276   31.8065   28.9074 O.2       1 UNK         0.0000 
     51 C51        28.4791   32.1809   28.2719 C.3       1 UNK         0.0000 
     52 H52        28.3309   32.5298   29.3010 H         1 UNK         0.0000 
     53 H53        28.0524   32.8879   27.5496 H         1 UNK         0.0000 
     54 N54        27.5869   30.9076   28.2886 N.am      1 UNK         0.0000 
     55 H55        27.8649   29.9531   28.4818 H         1 UNK         0.0000 
     56 C56        26.2044   30.9923   28.0920 C.2       1 UNK         0.0000 
     57 O57        25.7676   32.0616   27.6936 O.2       1 UNK         0.0000 
     58 C58        25.4237   29.7249   28.1822 C.3       1 UNK         0.0000 
     59 H59        24.4208   29.9527   27.8015 H         1 UNK         0.0000 
     60 C60        25.2093   29.4144   29.6542 C.3       1 UNK         0.0000 
     61 H61        26.1688   29.5013   30.1770 H         1 UNK         0.0000 
     62 H62        24.9038   28.3739   29.8209 H         1 UNK         0.0000 
     63 C63        24.1744   30.3626   30.2761 C.ar      1 UNK         0.0000 
     64 C64        22.8652   29.9945   30.4126 C.ar      1 UNK         0.0000 
     65 H65        22.5010   29.0637   29.9867 H         1 UNK         0.0000 
     66 C66        21.9723   30.8447   31.0765 C.ar      1 UNK         0.0000 
     67 H67        20.9301   30.6311   31.2919 H         1 UNK         0.0000 
     68 C68        22.4299   32.1350   31.4519 C.ar      1 UNK         0.0000 
     69 H69        21.7263   32.8748   31.8243 H         1 UNK         0.0000 
     70 C70        23.7890   32.3630   31.2895 C.ar      1 UNK         0.0000 
     71 H71        24.2433   33.3272   31.5119 H         1 UNK         0.0000 
     72 N72        24.5964   31.4783   30.7556 N.ar      1 UNK         0.0000 
     73 C73        29.9528   26.3668   30.1301 C.3       1 UNK         0.0000 
     74 H74        29.3213   25.5850   29.6891 H         1 UNK         0.0000 
     75 H75        29.6617   26.4822   31.1822 H         1 UNK         0.0000 
     76 H76        31.0346   26.2416   29.9982 H         1 UNK         0.0000 
     77 S77        29.7685   27.9329   29.3090 S.3       1 UNK         0.0000 
     78 C78        30.4375   28.7990   30.7230 C.3       1 UNK         0.0000 
     79 H79        31.4919   28.5808   30.9284 H         1 UNK         0.0000 
     80 H80        29.8533   28.5065   31.6046 H         1 UNK         0.0000 
     81 H81        30.4249   29.8474   30.4015 H         1 UNK         0.0000 
     82 O82        28.3109   28.1410   29.3836 O.2       1 UNK         0.0000 
     83 C83        24.2237   21.4882   26.5667 C.3       1 UNK         0.0000 
     84 H84        24.7899   21.9821   27.3660 H         1 UNK         0.0000 
     85 H85        24.7065   21.4185   25.5841 H         1 UNK         0.0000 
     86 H86        24.1443   20.4525   26.9189 H         1 UNK         0.0000 
     87 S87        22.6573   22.2833   26.4492 S.3       1 UNK         0.0000 
     88 C88        22.3386   21.4035   24.8217 C.3       1 UNK         0.0000 
     89 H89        22.7778   22.0455   24.0476 H         1 UNK         0.0000 
     90 H90        21.2504   21.3457   24.6944 H         1 UNK         0.0000 
     91 H91        22.7920   20.4132   24.6879 H         1 UNK         0.0000 
     92 O92        22.9825   23.5996   25.8087 O.2       1 UNK         0.0000 
@<TRIPOS>BOND
     1    1    5 1    
     2    1    2 1    
     3    1    3 1    
     4    1    4 1    
     5    5    6 1    
     6    5   10 1    
     7    5   14 1    
     8    6    7 1    
     9    6    8 1    
    10    6    9 1    
    11   10   12 1    
    12   10   11 1    
    13   10   13 1    
    14   14   15 1    
    15   15   16 2    
    16   15   17 am   BACKBONE|DICT|INTERRES
    17   17   18 1    
    18   17   19 1    
    19   19   24 1    
    20   19   20 1    
    21   19   25 1    
    22   20   21 am   BACKBONE|DICT|INTERRES
    23   20   23 2    
    24   21   58 1    
    25   21   22 1    
    26   25   27 1    
    27   25   26 1    
    28   25   28 1    
    29   28   33 ar   
    30   28   29 ar   
    31   29   30 ar   
    32   29   32 1    
    33   30   37 ar   
    34   30   31 1    
    35   33   34 1    
    36   33   35 ar   
    37   35   36 1    
    38   35   37 ar   
    39   37   38 1    
    40   38   39 1    
    41   39   44 ar   
    42   39   40 ar   
    43   40   41 ar   
    44   40   43 1    
    45   41   48 ar   
    46   41   42 1    
    47   44   45 1    
    48   44   46 ar   
    49   46   47 1    
    50   46   48 ar   
    51   48   49 1    
    52   49   51 1    
    53   49   50 2    
    54   51   54 1    
    55   51   52 1    
    56   51   53 1    
    57   54   55 1    
    58   54   56 am   BACKBONE|DICT|INTERRES
    59   56   58 1    
    60   56   57 2    
    61   58   59 1    
    62   58   60 1    
    63   60   62 1    
    64   60   63 1    
    65   60   61 1    
    66   63   64 ar   
    67   63   72 ar   
    68   64   66 ar   
    69   64   65 1    
    70   66   67 1    
    71   66   68 ar   
    72   68   69 1    
    73   68   70 ar   
    74   70   71 1    
    75   70   72 ar   
    76   73   76 1    
    77   73   75 1    
    78   73   74 1    
    79   73   77 1    
    80   77   78 1    
    81   77   82 2    
    82   78   79 1    
    83   78   80 1    
    84   78   81 1    
    85   83   86 1    
    86   83   84 1    
    87   83   85 1    
    88   83   87 1    
    89   87   88 1    
    90   87   92 2    
    91   88   91 1    
    92   88   89 1    
    93   88   90 1    
@<TRIPOS>SUBSTRUCTURE
     1 UNK         1 GROUP             0       ****    0 ROOT    
@<TRIPOS>MOLECULE
Cpd5-1000
82   84    1
SMALL
USER_CHARGES


@<TRIPOS>ATOM
      1 C1         22.9590   23.6183   31.9172 C.3       1 UNK         0.0000 
      2 H2         22.8851   24.6068   32.3859 H         1 UNK         0.0000 
      3 H3         22.2745   23.4848   31.0703 H         1 UNK         0.0000 
      4 H4         22.7127   22.8027   32.6076 H         1 UNK         0.0000 
      5 C5         24.3275   23.4984   31.2797 C.3       1 UNK         0.0000 
      6 C6         24.3434   22.1106   30.6085 C.3       1 UNK         0.0000 
      7 H7         23.7223   22.1127   29.7043 H         1 UNK         0.0000 
      8 H8         25.3798   21.8346   30.3815 H         1 UNK         0.0000 
      9 H9         23.9665   21.4082   31.3618 H         1 UNK         0.0000 
     10 C10        25.4467   23.9332   32.3007 C.3       1 UNK         0.0000 
     11 H11        25.5861   25.0206   32.2625 H         1 UNK         0.0000 
     12 H12        25.1912   23.6204   33.3205 H         1 UNK         0.0000 
     13 H13        26.3852   23.4535   31.9954 H         1 UNK         0.0000 
     14 O14        24.2335   24.4966   30.2912 O.3       1 UNK         0.0000 
     15 C15        25.2679   24.7505   29.5017 C.2       1 UNK         0.0000 
     16 O16        26.2484   24.0353   29.3500 O.2       1 UNK         0.0000 
     17 N17        25.0062   25.7930   28.6692 N.am      1 UNK         0.0000 
     18 H18        24.2589   26.4078   28.9688 H         1 UNK         0.0000 
     19 C19        25.9850   26.2929   27.6955 C.3       1 UNK         0.0000 
     20 C20        25.4702   27.6942   27.3049 C.2       1 UNK         0.0000 
     21 N21        25.8166   28.6697   28.1493 N.am      1 UNK         0.0000 
     22 H22        26.4508   28.4697   28.9126 H         1 UNK         0.0000 
     23 O23        24.8678   27.9214   26.2593 O.2       1 UNK         0.0000 
     24 H24        26.9648   26.3121   28.1889 H         1 UNK         0.0000 
     25 C25        26.1943   25.3353   26.4756 C.3       1 UNK         0.0000 
     26 H26        25.2580   25.1547   25.9343 H         1 UNK         0.0000 
     27 H27        26.4526   24.3216   26.8051 H         1 UNK         0.0000 
     28 C28        27.3112   25.9097   25.6090 C.ar      1 UNK         0.0000 
     29 C29        27.0258   26.7535   24.5413 C.ar      1 UNK         0.0000 
     30 C30        28.0112   27.5111   23.8869 C.ar      1 UNK         0.0000 
     31 H31        27.6232   28.3455   23.3092 H         1 UNK         0.0000 
     32 H32        25.9871   27.0289   24.3840 H         1 UNK         0.0000 
     33 C33        28.6849   25.6411   25.8186 C.ar      1 UNK         0.0000 
     34 H34        28.9035   24.9521   26.6290 H         1 UNK         0.0000 
     35 C35        29.7354   26.2894   25.1145 C.ar      1 UNK         0.0000 
     36 H36        30.7606   26.2188   25.4637 H         1 UNK         0.0000 
     37 C37        29.3941   27.2483   24.1420 C.ar      1 UNK         0.0000 
     38 O38        30.3500   28.1773   23.7960 O.3       1 UNK         0.0000 
     39 C39        30.4389   29.2326   24.6651 C.ar      1 UNK         0.0000 
     40 C40        29.5053   30.2780   24.5301 C.ar      1 UNK         0.0000 
     41 C41        29.3489   31.2385   25.5881 C.ar      1 UNK         0.0000 
     42 H42        28.4960   31.9051   25.5028 H         1 UNK         0.0000 
     43 H43        28.7504   30.2600   23.7500 H         1 UNK         0.0000 
     44 C44        31.3746   29.2537   25.6553 C.ar      1 UNK         0.0000 
     45 H45        32.1915   28.5407   25.5949 H         1 UNK         0.0000 
     46 C46        31.2244   30.0907   26.7439 C.ar      1 UNK         0.0000 
     47 H47        31.9892   29.9644   27.5046 H         1 UNK         0.0000 
     48 C48        30.1554   30.9989   26.7880 C.ar      1 UNK         0.0000 
     49 C49        29.8890   31.6674   28.0972 C.2       1 UNK         0.0000 
     50 O50        30.5986   31.5658   29.1376 O.2       1 UNK         0.0000 
     51 C51        28.4513   32.0900   28.2650 C.3       1 UNK         0.0000 
     52 H52        28.2792   32.6594   29.1864 H         1 UNK         0.0000 
     53 H53        28.1732   32.7038   27.3987 H         1 UNK         0.0000 
     54 N54        27.4708   31.0098   28.2631 N.am      1 UNK         0.0000 
     55 H55        27.7704   30.1655   28.7362 H         1 UNK         0.0000 
     56 C56        26.1120   31.2468   28.1473 C.2       1 UNK         0.0000 
     57 O57        25.6936   32.3000   27.7041 O.2       1 UNK         0.0000 
     58 C58        25.1659   29.9858   28.2134 C.3       1 UNK         0.0000 
     59 H59        24.5485   30.0229   27.3075 H         1 UNK         0.0000 
     60 C60        24.2635   30.0588   29.4141 C.3       1 UNK         0.0000 
     61 H61        23.7353   31.0192   29.3863 H         1 UNK         0.0000 
     62 H62        24.7789   29.9258   30.3726 H         1 UNK         0.0000 
     63 C63        23.0919   29.0908   29.3680 C.ar      1 UNK         0.0000 
     64 C64        21.8987   29.4730   28.7151 C.ar      1 UNK         0.0000 
     65 H65        21.8894   30.4019   28.1520 H         1 UNK         0.0000 
     66 C66        20.7718   28.5298   28.7054 C.ar      1 UNK         0.0000 
     67 H67        19.9161   28.6150   28.0431 H         1 UNK         0.0000 
     68 C68        20.9124   27.3533   29.4448 C.ar      1 UNK         0.0000 
     69 H69        20.1627   26.5669   29.4640 H         1 UNK         0.0000 
     70 C70        22.1089   27.1474   30.1200 C.ar      1 UNK         0.0000 
     71 H71        22.2730   26.2141   30.6573 H         1 UNK         0.0000 
     72 N72        23.1514   27.9831   30.1345 N.ar      1 UNK         0.0000 
     73 C73        26.0897   28.8681   32.5968 C.3       1 UNK         0.0000 
     74 H74        25.4850   28.2471   33.2691 H         1 UNK         0.0000 
     75 H75        25.4914   29.6741   32.1541 H         1 UNK         0.0000 
     76 H76        26.7272   29.2736   33.3930 H         1 UNK         0.0000 
     77 S77        26.9603   27.8633   31.3604 S.3       1 UNK         0.0000 
     78 C78        27.9824   26.9198   32.5529 C.3       1 UNK         0.0000 
     79 H79        28.6530   26.3217   31.9244 H         1 UNK         0.0000 
     80 H80        27.3979   26.1996   33.1386 H         1 UNK         0.0000 
     81 H81        28.5395   27.6893   33.1014 H         1 UNK         0.0000 
     82 O82        27.7738   28.7316   30.4056 O.2       1 UNK         0.0000 
@<TRIPOS>BOND
     1    1    2 1    
     2    1    4 1    
     3    1    3 1    
     4    1    5 1    
     5    5   10 1    
     6    5    6 1    
     7    5   14 1    
     8    6    9 1    
     9    6    7 1    
    10    6    8 1    
    11   10   12 1    
    12   10   11 1    
    13   10   13 1    
    14   14   15 1    
    15   15   16 2    
    16   15   17 am   BACKBONE|DICT|INTERRES
    17   17   18 1    
    18   17   19 1    
    19   19   24 1    
    20   19   20 1    
    21   19   25 1    
    22   20   21 am   BACKBONE|DICT|INTERRES
    23   20   23 2    
    24   21   58 1    
    25   21   22 1    
    26   25   27 1    
    27   25   26 1    
    28   25   28 1    
    29   28   33 ar   
    30   28   29 ar   
    31   29   30 ar   
    32   29   32 1    
    33   30   37 ar   
    34   30   31 1    
    35   33   34 1    
    36   33   35 ar   
    37   35   36 1    
    38   35   37 ar   
    39   37   38 1    
    40   38   39 1    
    41   39   44 ar   
    42   39   40 ar   
    43   40   41 ar   
    44   40   43 1    
    45   41   48 ar   
    46   41   42 1    
    47   44   46 ar   
    48   44   45 1    
    49   46   48 ar   
    50   46   47 1    
    51   48   49 1    
    52   49   51 1    
    53   49   50 2    
    54   51   52 1    
    55   51   53 1    
    56   51   54 1    
    57   54   55 1    
    58   54   56 am   BACKBONE|DICT|INTERRES
    59   56   57 2    
    60   56   58 1    
    61   58   59 1    
    62   58   60 1    
    63   60   62 1    
    64   60   61 1    
    65   60   63 1    
    66   63   72 ar   
    67   63   64 ar   
    68   64   65 1    
    69   64   66 ar   
    70   66   68 ar   
    71   66   67 1    
    72   68   70 ar   
    73   68   69 1    
    74   70   72 ar   
    75   70   71 1    
    76   73   74 1    
    77   73   76 1    
    78   73   75 1    
    79   73   77 1    
    80   77   78 1    
    81   77   82 2    
    82   78   80 1    
    83   78   81 1    
    84   78   79 1    
@<TRIPOS>SUBSTRUCTURE
     1 UNK         1 GROUP             0       ****    0 ROOT    
@<TRIPOS>MOLECULE
Cpd5-1500
92   93    1
SMALL
USER_CHARGES


@<TRIPOS>ATOM
      1 C1         20.2825   23.6697   29.6870 C.3       1 UNK         0.0000 
      2 H2         20.4272   22.8451   28.9788 H         1 UNK         0.0000 
      3 H3         19.7011   23.3142   30.5463 H         1 UNK         0.0000 
      4 H4         19.6964   24.5294   29.3404 H         1 UNK         0.0000 
      5 C5         21.6783   24.1434   30.0632 C.3       1 UNK         0.0000 
      6 C6         22.2980   23.0574   30.9639 C.3       1 UNK         0.0000 
      7 H7         21.5783   22.7308   31.7245 H         1 UNK         0.0000 
      8 H8         22.8153   22.2875   30.3781 H         1 UNK         0.0000 
      9 H9         23.0779   23.5132   31.5868 H         1 UNK         0.0000 
     10 C10        21.6005   25.4097   30.8895 C.3       1 UNK         0.0000 
     11 H11        21.4814   26.1911   30.1289 H         1 UNK         0.0000 
     12 H12        20.8299   25.5346   31.6600 H         1 UNK         0.0000 
     13 H13        22.5386   25.5808   31.4305 H         1 UNK         0.0000 
     14 O14        22.3155   24.4827   28.8406 O.3       1 UNK         0.0000 
     15 C15        23.5984   24.9167   28.8722 C.2       1 UNK         0.0000 
     16 O16        24.2394   25.1779   29.8711 O.2       1 UNK         0.0000 
     17 N17        23.8338   25.2871   27.5842 N.am      1 UNK         0.0000 
     18 H18        23.2119   25.0416   26.8242 H         1 UNK         0.0000 
     19 C19        25.1067   25.9121   27.1143 C.3       1 UNK         0.0000 
     20 C20        25.0601   27.4953   26.9577 C.2       1 UNK         0.0000 
     21 N21        25.8383   28.2561   27.8272 N.am      1 UNK         0.0000 
     22 H22        26.3562   27.7632   28.5452 H         1 UNK         0.0000 
     23 O23        24.3367   27.9655   26.1307 O.2       1 UNK         0.0000 
     24 H24        25.8835   25.7939   27.8795 H         1 UNK         0.0000 
     25 C25        25.6813   25.3141   25.8290 C.3       1 UNK         0.0000 
     26 H26        24.8935   25.6089   25.1251 H         1 UNK         0.0000 
     27 H27        25.8004   24.2246   25.8564 H         1 UNK         0.0000 
     28 C28        27.0460   25.9784   25.4442 C.ar      1 UNK         0.0000 
     29 C29        27.0253   26.8923   24.4319 C.ar      1 UNK         0.0000 
     30 C30        28.1967   27.5604   24.1464 C.ar      1 UNK         0.0000 
     31 H31        28.1546   28.2875   23.3402 H         1 UNK         0.0000 
     32 H32        26.1444   27.3227   23.9638 H         1 UNK         0.0000 
     33 C33        28.2613   25.5991   26.0202 C.ar      1 UNK         0.0000 
     34 H34        28.2768   25.0517   26.9581 H         1 UNK         0.0000 
     35 C35        29.5237   26.0726   25.5496 C.ar      1 UNK         0.0000 
     36 H36        30.4538   25.8554   26.0672 H         1 UNK         0.0000 
     37 C37        29.4236   27.1242   24.6689 C.ar      1 UNK         0.0000 
     38 O38        30.4679   27.9698   24.4596 O.3       1 UNK         0.0000 
     39 C39        30.4433   29.1512   25.1020 C.ar      1 UNK         0.0000 
     40 C40        30.0894   30.3576   24.4815 C.ar      1 UNK         0.0000 
     41 C41        29.8766   31.5317   25.2056 C.ar      1 UNK         0.0000 
     42 H42        29.5452   32.3920   24.6314 H         1 UNK         0.0000 
     43 H43        29.9417   30.4592   23.4107 H         1 UNK         0.0000 
     44 C44        30.7683   29.1154   26.4525 C.ar      1 UNK         0.0000 
     45 H45        31.1433   28.2239   26.9454 H         1 UNK         0.0000 
     46 C46        30.5378   30.3002   27.2368 C.ar      1 UNK         0.0000 
     47 H47        30.6369   30.3180   28.3182 H         1 UNK         0.0000 
     48 C48        30.1131   31.4980   26.6441 C.ar      1 UNK         0.0000 
     49 C49        29.6423   32.6094   27.4790 C.2       1 UNK         0.0000 
     50 O50        29.9184   33.7644   27.1969 O.2       1 UNK         0.0000 
     51 C51        28.7091   32.3410   28.6575 C.3       1 UNK         0.0000 
     52 H52        29.1861   31.5976   29.3080 H         1 UNK         0.0000 
     53 H53        28.5423   33.2177   29.2955 H         1 UNK         0.0000 
     54 N54        27.4073   31.7877   28.2786 N.am      1 UNK         0.0000 
     55 H55        26.9181   32.2238   27.5067 H         1 UNK         0.0000 
     56 C56        27.0832   30.4133   28.4747 C.2       1 UNK         0.0000 
     57 O57        27.9168   29.6249   28.9349 O.2       1 UNK         0.0000 
     58 C58        25.8018   29.7675   27.8671 C.3       1 UNK         0.0000 
     59 H59        25.7782   30.1851   26.8536 H         1 UNK         0.0000 
     60 C60        24.5238   30.2056   28.6153 C.3       1 UNK         0.0000 
     61 H61        23.6330   30.0255   27.9999 H         1 UNK         0.0000 
     62 H62        24.5564   31.3002   28.6683 H         1 UNK         0.0000 
     63 C63        24.5514   29.8094   30.1036 C.ar      1 UNK         0.0000 
     64 C64        25.4622   30.4202   31.0403 C.ar      1 UNK         0.0000 
     65 H65        26.1550   31.1758   30.6830 H         1 UNK         0.0000 
     66 C66        25.5173   29.9106   32.3401 C.ar      1 UNK         0.0000 
     67 H67        26.1638   30.2228   33.1554 H         1 UNK         0.0000 
     68 C68        24.6421   28.8793   32.6967 C.ar      1 UNK         0.0000 
     69 H69        24.5237   28.3386   33.6306 H         1 UNK         0.0000 
     70 C70        23.8325   28.3722   31.6867 C.ar      1 UNK         0.0000 
     71 H71        23.1437   27.5465   31.8597 H         1 UNK         0.0000 
     72 N72        23.7703   28.8049   30.4280 N.ar      1 UNK         0.0000 
     73 C73        27.0488   33.9077   24.8286 C.3       1 UNK         0.0000 
     74 H74        27.1981   32.9420   24.3315 H         1 UNK         0.0000 
     75 H75        27.8203   34.0274   25.5983 H         1 UNK         0.0000 
     76 H76        27.2397   34.7909   24.2064 H         1 UNK         0.0000 
     77 S77        25.4059   34.0328   25.4344 S.3       1 UNK         0.0000 
     78 C78        25.9260   35.4660   26.5232 C.3       1 UNK         0.0000 
     79 H79        26.3232   35.1624   27.4994 H         1 UNK         0.0000 
     80 H80        25.0542   36.1205   26.6361 H         1 UNK         0.0000 
     81 H81        26.7498   35.9441   25.9786 H         1 UNK         0.0000 
     82 O82        25.2920   32.8829   26.3925 O.2       1 UNK         0.0000 
     83 C83        20.8618   22.3254   24.4410 C.3       1 UNK         0.0000 
     84 H84        21.0108   21.4194   23.8413 H         1 UNK         0.0000 
     85 H85        20.3439   23.0598   23.8127 H         1 UNK         0.0000 
     86 H86        20.3274   22.1848   25.3883 H         1 UNK         0.0000 
     87 S87        22.5572   22.9914   24.8360 S.3       1 UNK         0.0000 
     88 C88        22.8179   21.7573   26.1086 C.3       1 UNK         0.0000 
     89 H89        23.8046   21.7881   26.5868 H         1 UNK         0.0000 
     90 H90        22.5340   20.8004   25.6535 H         1 UNK         0.0000 
     91 H91        22.0446   22.0180   26.8415 H         1 UNK         0.0000 
     92 O92        22.1764   24.1911   25.6221 O.2       1 UNK         0.0000 
@<TRIPOS>BOND
     1    1    5 1    
     2    1    3 1    
     3    1    2 1    
     4    1    4 1    
     5    5   10 1    
     6    5    6 1    
     7    5   14 1    
     8    6    9 1    
     9    6    7 1    
    10    6    8 1    
    11   10   12 1    
    12   10   13 1    
    13   10   11 1    
    14   14   15 1    
    15   15   16 2    
    16   15   17 am   BACKBONE|DICT|INTERRES
    17   17   18 1    
    18   17   19 1    
    19   19   24 1    
    20   19   20 1    
    21   19   25 1    
    22   20   21 am   BACKBONE|DICT|INTERRES
    23   20   23 2    
    24   21   22 1    
    25   21   58 1    
    26   25   27 1    
    27   25   26 1    
    28   25   28 1    
    29   28   33 ar   
    30   28   29 ar   
    31   29   30 ar   
    32   29   32 1    
    33   30   37 ar   
    34   30   31 1    
    35   33   34 1    
    36   33   35 ar   
    37   35   36 1    
    38   35   37 ar   
    39   37   38 1    
    40   38   39 1    
    41   39   44 ar   
    42   39   40 ar   
    43   40   41 ar   
    44   40   43 1    
    45   41   48 ar   
    46   41   42 1    
    47   44   46 ar   
    48   44   45 1    
    49   46   47 1    
    50   46   48 ar   
    51   48   49 1    
    52   49   51 1    
    53   49   50 2    
    54   51   53 1    
    55   51   52 1    
    56   51   54 1    
    57   54   56 am   BACKBONE|DICT|INTERRES
    58   54   55 1    
    59   56   57 2    
    60   56   58 1    
    61   58   59 1    
    62   58   60 1    
    63   60   63 1    
    64   60   61 1    
    65   60   62 1    
    66   63   72 ar   
    67   63   64 ar   
    68   64   66 ar   
    69   64   65 1    
    70   66   68 ar   
    71   66   67 1    
    72   68   69 1    
    73   68   70 ar   
    74   70   71 1    
    75   70   72 ar   
    76   73   77 1    
    77   73   75 1    
    78   73   74 1    
    79   73   76 1    
    80   77   78 1    
    81   77   82 2    
    82   78   79 1    
    83   78   80 1    
    84   78   81 1    
    85   83   87 1    
    86   83   86 1    
    87   83   84 1    
    88   83   85 1    
    89   87   92 2    
    90   87   88 1    
    91   88   91 1    
    92   88   89 1    
    93   88   90 1    
@<TRIPOS>SUBSTRUCTURE
     1 UNK         1 GROUP             0       ****    0 ROOT    
@<TRIPOS>MOLECULE
Cpd5-2000
92   93    1
SMALL
USER_CHARGES


@<TRIPOS>ATOM
      1 C1         26.8198   25.1055   32.7362 C.3       1 UNK         0.0000 
      2 H2         26.6126   26.1824   32.7406 H         1 UNK         0.0000 
      3 H3         26.9011   24.7791   33.7810 H         1 UNK         0.0000 
      4 H4         27.7391   24.8148   32.2140 H         1 UNK         0.0000 
      5 C5         25.5502   24.3723   32.1280 C.3       1 UNK         0.0000 
      6 C6         24.3608   24.5743   33.0864 C.3       1 UNK         0.0000 
      7 H7         24.3684   23.8663   33.9239 H         1 UNK         0.0000 
      8 H8         24.4407   25.5365   33.6085 H         1 UNK         0.0000 
      9 H9         23.3750   24.4974   32.6127 H         1 UNK         0.0000 
     10 C10        25.7612   22.8491   32.1882 C.3       1 UNK         0.0000 
     11 H11        26.7260   22.6118   31.7239 H         1 UNK         0.0000 
     12 H12        25.8965   22.5304   33.2289 H         1 UNK         0.0000 
     13 H13        25.0313   22.2192   31.6646 H         1 UNK         0.0000 
     14 O14        25.2018   24.8977   30.8583 O.3       1 UNK         0.0000 
     15 C15        26.0805   25.0339   29.8251 C.2       1 UNK         0.0000 
     16 O16        27.2800   24.6671   29.7570 O.2       1 UNK         0.0000 
     17 N17        25.5133   25.7978   28.8661 N.am      1 UNK         0.0000 
     18 H18        24.5559   26.0336   29.0990 H         1 UNK         0.0000 
     19 C19        26.1999   26.4095   27.6816 C.3       1 UNK         0.0000 
     20 C20        25.6031   27.7511   27.1679 C.2       1 UNK         0.0000 
     21 N21        26.0520   28.8719   27.8319 N.am      1 UNK         0.0000 
     22 H22        26.7369   28.7692   28.5709 H         1 UNK         0.0000 
     23 O23        24.6217   27.8078   26.4176 O.2       1 UNK         0.0000 
     24 H24        27.2420   26.6745   27.8978 H         1 UNK         0.0000 
     25 C25        26.3330   25.4203   26.4707 C.3       1 UNK         0.0000 
     26 H26        25.3754   25.2863   25.9534 H         1 UNK         0.0000 
     27 H27        26.5822   24.4117   26.8237 H         1 UNK         0.0000 
     28 C28        27.3599   25.9022   25.5259 C.ar      1 UNK         0.0000 
     29 C29        27.0526   26.6354   24.3706 C.ar      1 UNK         0.0000 
     30 C30        28.0992   27.2657   23.6091 C.ar      1 UNK         0.0000 
     31 H31        27.7530   27.8697   22.7761 H         1 UNK         0.0000 
     32 H32        26.0529   26.8430   24.0008 H         1 UNK         0.0000 
     33 C33        28.7128   25.7257   25.8532 C.ar      1 UNK         0.0000 
     34 H34        29.0263   25.1300   26.7047 H         1 UNK         0.0000 
     35 C35        29.7490   26.2727   25.0711 C.ar      1 UNK         0.0000 
     36 H36        30.7599   26.1889   25.4584 H         1 UNK         0.0000 
     37 C37        29.4230   27.1340   24.0760 C.ar      1 UNK         0.0000 
     38 O38        30.3601   28.1299   23.7608 O.3       1 UNK         0.0000 
     39 C39        30.3019   29.2234   24.6760 C.ar      1 UNK         0.0000 
     40 C40        29.1365   29.9785   24.8125 C.ar      1 UNK         0.0000 
     41 C41        29.0303   30.8453   25.8873 C.ar      1 UNK         0.0000 
     42 H42        28.2655   31.6149   25.9373 H         1 UNK         0.0000 
     43 H43        28.3846   29.9300   24.0306 H         1 UNK         0.0000 
     44 C44        31.4033   29.3683   25.4627 C.ar      1 UNK         0.0000 
     45 H45        32.3336   28.8217   25.3407 H         1 UNK         0.0000 
     46 C46        31.2094   30.0907   26.6812 C.ar      1 UNK         0.0000 
     47 H47        31.9924   30.1010   27.4336 H         1 UNK         0.0000 
     48 C48        29.9990   30.7950   26.9445 C.ar      1 UNK         0.0000 
     49 C49        29.8052   31.6762   28.2181 C.2       1 UNK         0.0000 
     50 O50        30.6939   31.8315   29.0647 O.2       1 UNK         0.0000 
     51 C51        28.4671   32.2345   28.5523 C.3       1 UNK         0.0000 
     52 H52        28.4931   32.7921   29.4964 H         1 UNK         0.0000 
     53 H53        28.3515   32.9203   27.7034 H         1 UNK         0.0000 
     54 N54        27.4886   31.1437   28.5553 N.am      1 UNK         0.0000 
     55 H55        27.8434   30.2260   28.7952 H         1 UNK         0.0000 
     56 C56        26.1472   31.3451   28.0793 C.2       1 UNK         0.0000 
     57 O57        25.7744   32.4912   27.9338 O.2       1 UNK         0.0000 
     58 C58        25.2520   30.0521   27.8872 C.3       1 UNK         0.0000 
     59 H59        24.6471   30.1698   26.9788 H         1 UNK         0.0000 
     60 C60        24.2195   29.9553   29.0271 C.3       1 UNK         0.0000 
     61 H61        23.6814   29.0011   28.9790 H         1 UNK         0.0000 
     62 H62        23.4104   30.6955   29.0482 H         1 UNK         0.0000 
     63 C63        24.8372   29.9985   30.3743 C.ar      1 UNK         0.0000 
     64 C64        24.6762   31.2315   31.0395 C.ar      1 UNK         0.0000 
     65 H65        24.3141   32.1146   30.5222 H         1 UNK         0.0000 
     66 C66        25.1580   31.4190   32.3150 C.ar      1 UNK         0.0000 
     67 H67        25.0828   32.3531   32.8627 H         1 UNK         0.0000 
     68 C68        25.8025   30.2963   32.9113 C.ar      1 UNK         0.0000 
     69 H69        26.3095   30.2883   33.8718 H         1 UNK         0.0000 
     70 C70        25.9369   29.0768   32.1982 C.ar      1 UNK         0.0000 
     71 H71        26.4732   28.2522   32.6651 H         1 UNK         0.0000 
     72 N72        25.4887   28.9498   30.9286 N.ar      1 UNK         0.0000 
     73 C73        30.2007   29.2198   30.9899 C.3       1 UNK         0.0000 
     74 H74        29.5902   29.9748   31.5002 H         1 UNK         0.0000 
     75 H75        30.7687   29.6459   30.1547 H         1 UNK         0.0000 
     76 H76        30.8844   28.7660   31.7177 H         1 UNK         0.0000 
     77 S77        29.1041   27.9811   30.4032 S.3       1 UNK         0.0000 
     78 C78        30.3805   27.0226   29.6186 C.3       1 UNK         0.0000 
     79 H79        29.8159   26.3557   28.9561 H         1 UNK         0.0000 
     80 H80        30.8976   26.5505   30.4630 H         1 UNK         0.0000 
     81 H81        30.9625   27.5143   28.8284 H         1 UNK         0.0000 
     82 O82        28.5055   28.5027   29.1479 O.2       1 UNK         0.0000 
     83 C83        22.7116   23.9848   27.9057 C.3       1 UNK         0.0000 
     84 H84        23.7940   24.0522   28.0745 H         1 UNK         0.0000 
     85 H85        22.6131   24.1206   26.8221 H         1 UNK         0.0000 
     86 H86        22.4362   22.9536   28.1606 H         1 UNK         0.0000 
     87 S87        21.8581   25.3703   28.6354 S.3       1 UNK         0.0000 
     88 C88        20.6615   25.4717   27.3407 C.3       1 UNK         0.0000 
     89 H89        19.8569   26.0877   27.7589 H         1 UNK         0.0000 
     90 H90        20.2500   24.4826   27.1043 H         1 UNK         0.0000 
     91 H91        21.0963   25.8008   26.3884 H         1 UNK         0.0000 
     92 O92        22.7427   26.5667   28.4261 O.2       1 UNK         0.0000 
@<TRIPOS>BOND
     1    1    3 1    
     2    1    2 1    
     3    1    4 1    
     4    1    5 1    
     5    5   10 1    
     6    5    6 1    
     7    5   14 1    
     8    6    8 1    
     9    6    7 1    
    10    6    9 1    
    11   10   12 1    
    12   10   11 1    
    13   10   13 1    
    14   14   15 1    
    15   15   16 2    
    16   15   17 am   BACKBONE|DICT|INTERRES
    17   17   18 1    
    18   17   19 1    
    19   19   24 1    
    20   19   20 1    
    21   19   25 1    
    22   20   21 am   BACKBONE|DICT|INTERRES
    23   20   23 2    
    24   21   22 1    
    25   21   58 1    
    26   25   27 1    
    27   25   26 1    
    28   25   28 1    
    29   28   33 ar   
    30   28   29 ar   
    31   29   30 ar   
    32   29   32 1    
    33   30   37 ar   
    34   30   31 1    
    35   33   34 1    
    36   33   35 ar   
    37   35   36 1    
    38   35   37 ar   
    39   37   38 1    
    40   38   39 1    
    41   39   44 ar   
    42   39   40 ar   
    43   40   41 ar   
    44   40   43 1    
    45   41   48 ar   
    46   41   42 1    
    47   44   45 1    
    48   44   46 ar   
    49   46   47 1    
    50   46   48 ar   
    51   48   49 1    
    52   49   50 2    
    53   49   51 1    
    54   51   52 1    
    55   51   53 1    
    56   51   54 1    
    57   54   55 1    
    58   54   56 am   BACKBONE|DICT|INTERRES
    59   56   57 2    
    60   56   58 1    
    61   58   59 1    
    62   58   60 1    
    63   60   63 1    
    64   60   61 1    
    65   60   62 1    
    66   63   64 ar   
    67   63   72 ar   
    68   64   66 ar   
    69   64   65 1    
    70   66   67 1    
    71   66   68 ar   
    72   68   69 1    
    73   68   70 ar   
    74   70   71 1    
    75   70   72 ar   
    76   73   74 1    
    77   73   76 1    
    78   73   75 1    
    79   73   77 1    
    80   77   78 1    
    81   77   82 2    
    82   78   80 1    
    83   78   79 1    
    84   78   81 1    
    85   83   86 1    
    86   83   87 1    
    87   83   84 1    
    88   83   85 1    
    89   87   92 2    
    90   87   88 1    
    91   88   89 1    
    92   88   90 1    
    93   88   91 1    
@<TRIPOS>SUBSTRUCTURE
     1 UNK         1 GROUP             0       ****    0 ROOT    
@<TRIPOS>MOLECULE
Cpd5-2500
92   93    1
SMALL
USER_CHARGES


@<TRIPOS>ATOM
      1 C1         22.5116   26.0891   31.5551 C.3       1 UNK         0.0000 
      2 H2         23.4572   26.4743   31.9553 H         1 UNK         0.0000 
      3 H3         21.9633   26.8744   31.0196 H         1 UNK         0.0000 
      4 H4         21.9586   25.8356   32.4683 H         1 UNK         0.0000 
      5 C5         22.8539   24.7794   30.9000 C.3       1 UNK         0.0000 
      6 C6         21.6306   23.8991   30.5977 C.3       1 UNK         0.0000 
      7 H7         21.9804   22.9475   30.1781 H         1 UNK         0.0000 
      8 H8         21.1160   23.6688   31.5383 H         1 UNK         0.0000 
      9 H9         20.8819   24.2574   29.8808 H         1 UNK         0.0000 
     10 C10        23.9038   23.9634   31.6253 C.3       1 UNK         0.0000 
     11 H11        24.4961   23.3050   30.9773 H         1 UNK         0.0000 
     12 H12        24.5850   24.6289   32.1707 H         1 UNK         0.0000 
     13 H13        23.3438   23.4056   32.3856 H         1 UNK         0.0000 
     14 O14        23.2095   24.9866   29.5666 O.3       1 UNK         0.0000 
     15 C15        24.5174   25.4654   29.2578 C.2       1 UNK         0.0000 
     16 O16        25.3290   25.8419   30.0641 O.2       1 UNK         0.0000 
     17 N17        24.5422   25.6411   27.9025 N.am      1 UNK         0.0000 
     18 H18        23.7551   25.2787   27.3775 H         1 UNK         0.0000 
     19 C19        25.6657   26.3470   27.1626 C.3       1 UNK         0.0000 
     20 C20        25.4002   27.8870   27.1454 C.2       1 UNK         0.0000 
     21 N21        25.6670   28.5423   28.2972 N.am      1 UNK         0.0000 
     22 H22        26.3165   28.1567   28.9718 H         1 UNK         0.0000 
     23 O23        24.7210   28.3716   26.3051 O.2       1 UNK         0.0000 
     24 H24        26.5626   26.1805   27.7710 H         1 UNK         0.0000 
     25 C25        25.8731   25.6504   25.7925 C.3       1 UNK         0.0000 
     26 H26        25.1316   25.7847   24.9948 H         1 UNK         0.0000 
     27 H27        25.9302   24.5663   25.9429 H         1 UNK         0.0000 
     28 C28        27.1909   25.9919   25.2856 C.ar      1 UNK         0.0000 
     29 C29        27.2686   26.9203   24.3118 C.ar      1 UNK         0.0000 
     30 C30        28.4941   27.4530   23.8834 C.ar      1 UNK         0.0000 
     31 H31        28.4624   28.2067   23.1016 H         1 UNK         0.0000 
     32 H32        26.3091   27.1995   23.8869 H         1 UNK         0.0000 
     33 C33        28.3559   25.4027   25.7681 C.ar      1 UNK         0.0000 
     34 H34        28.3962   24.6168   26.5162 H         1 UNK         0.0000 
     35 C35        29.5866   25.9413   25.3316 C.ar      1 UNK         0.0000 
     36 H36        30.4512   25.5185   25.8349 H         1 UNK         0.0000 
     37 C37        29.6994   27.0354   24.4288 C.ar      1 UNK         0.0000 
     38 O38        30.7860   27.8017   24.1850 O.3       1 UNK         0.0000 
     39 C39        30.7540   28.9552   24.9012 C.ar      1 UNK         0.0000 
     40 C40        30.6497   30.2165   24.2803 C.ar      1 UNK         0.0000 
     41 C41        30.2761   31.3302   25.0842 C.ar      1 UNK         0.0000 
     42 H42        30.1158   32.2758   24.5750 H         1 UNK         0.0000 
     43 H43        30.9743   30.2507   23.2451 H         1 UNK         0.0000 
     44 C44        30.7704   28.8919   26.3105 C.ar      1 UNK         0.0000 
     45 H45        30.9024   27.9526   26.8402 H         1 UNK         0.0000 
     46 C46        30.3727   29.9857   27.0293 C.ar      1 UNK         0.0000 
     47 H47        30.2061   29.8293   28.0904 H         1 UNK         0.0000 
     48 C48        29.9722   31.1778   26.4055 C.ar      1 UNK         0.0000 
     49 C49        29.3529   32.3220   27.2851 C.2       1 UNK         0.0000 
     50 O50        29.5039   33.4490   26.9084 O.2       1 UNK         0.0000 
     51 C51        28.5237   31.8855   28.5046 C.3       1 UNK         0.0000 
     52 H52        29.1972   31.5334   29.2945 H         1 UNK         0.0000 
     53 H53        28.1223   32.8348   28.8787 H         1 UNK         0.0000 
     54 N54        27.4609   30.8978   28.2413 N.am      1 UNK         0.0000 
     55 H55        27.4171   30.4564   27.3309 H         1 UNK         0.0000 
     56 C56        26.3722   30.7440   29.0592 C.2       1 UNK         0.0000 
     57 O57        26.4128   31.3086   30.1302 O.2       1 UNK         0.0000 
     58 C58        25.1448   29.8931   28.5542 C.3       1 UNK         0.0000 
     59 H59        24.7530   30.2382   27.5889 H         1 UNK         0.0000 
     60 C60        23.9902   29.6732   29.5829 C.3       1 UNK         0.0000 
     61 H61        24.4671   29.2150   30.4576 H         1 UNK         0.0000 
     62 H62        23.2481   28.9444   29.2311 H         1 UNK         0.0000 
     63 C63        23.2765   30.9344   29.9797 C.ar      1 UNK         0.0000 
     64 C64        22.6740   31.6043   28.9802 C.ar      1 UNK         0.0000 
     65 H65        22.6425   31.3358   27.9277 H         1 UNK         0.0000 
     66 C66        22.0243   32.8116   29.3252 C.ar      1 UNK         0.0000 
     67 H67        21.6155   33.4395   28.5389 H         1 UNK         0.0000 
     68 C68        22.0099   33.2251   30.7209 C.ar      1 UNK         0.0000 
     69 H69        21.5264   34.1120   31.1195 H         1 UNK         0.0000 
     70 C70        22.6146   32.3911   31.6045 C.ar      1 UNK         0.0000 
     71 H71        22.4591   32.4549   32.6803 H         1 UNK         0.0000 
     72 N72        23.3538   31.3218   31.2604 N.ar      1 UNK         0.0000 
     73 C73        22.2472   26.5143   24.3963 C.3       1 UNK         0.0000 
     74 H74        23.1712   27.0523   24.6389 H         1 UNK         0.0000 
     75 H75        21.5118   27.2097   23.9704 H         1 UNK         0.0000 
     76 H76        22.5120   25.7314   23.6752 H         1 UNK         0.0000 
     77 S77        21.3035   25.6833   25.7888 S.3       1 UNK         0.0000 
     78 C78        21.3613   27.2226   26.9079 C.3       1 UNK         0.0000 
     79 H79        22.4109   27.5346   26.9707 H         1 UNK         0.0000 
     80 H80        20.9048   26.9568   27.8692 H         1 UNK         0.0000 
     81 H81        20.7013   28.0010   26.5051 H         1 UNK         0.0000 
     82 O82        22.3431   24.8244   26.4682 O.2       1 UNK         0.0000 
     83 C83        29.8774   28.8344   31.2839 C.3       1 UNK         0.0000 
     84 H84        29.9143   29.2347   32.3045 H         1 UNK         0.0000 
     85 H85        30.2119   29.5889   30.5609 H         1 UNK         0.0000 
     86 H86        30.5161   27.9439   31.3202 H         1 UNK         0.0000 
     87 S87        28.1589   28.3274   30.9031 S.3       1 UNK         0.0000 
     88 C88        28.2833   26.6899   31.8025 C.3       1 UNK         0.0000 
     89 H89        29.2133   26.1644   31.5555 H         1 UNK         0.0000 
     90 H90        27.3805   26.1586   31.4778 H         1 UNK         0.0000 
     91 H91        28.1796   26.8580   32.8818 H         1 UNK         0.0000 
     92 O92        28.3246   27.8665   29.4503 O.2       1 UNK         0.0000 
@<TRIPOS>BOND
     1    1    2 1    
     2    1    4 1    
     3    1    3 1    
     4    1    5 1    
     5    5   10 1    
     6    5    6 1    
     7    5   14 1    
     8    6    8 1    
     9    6    7 1    
    10    6    9 1    
    11   10   12 1    
    12   10   13 1    
    13   10   11 1    
    14   14   15 1    
    15   15   16 2    
    16   15   17 am   BACKBONE|DICT|INTERRES
    17   17   18 1    
    18   17   19 1    
    19   19   24 1    
    20   19   20 1    
    21   19   25 1    
    22   20   21 am   BACKBONE|DICT|INTERRES
    23   20   23 2    
    24   21   58 1    
    25   21   22 1    
    26   25   27 1    
    27   25   26 1    
    28   25   28 1    
    29   28   33 ar   
    30   28   29 ar   
    31   29   30 ar   
    32   29   32 1    
    33   30   37 ar   
    34   30   31 1    
    35   33   34 1    
    36   33   35 ar   
    37   35   36 1    
    38   35   37 ar   
    39   37   38 1    
    40   38   39 1    
    41   39   44 ar   
    42   39   40 ar   
    43   40   41 ar   
    44   40   43 1    
    45   41   48 ar   
    46   41   42 1    
    47   44   45 1    
    48   44   46 ar   
    49   46   47 1    
    50   46   48 ar   
    51   48   49 1    
    52   49   51 1    
    53   49   50 2    
    54   51   53 1    
    55   51   52 1    
    56   51   54 1    
    57   54   56 am   BACKBONE|DICT|INTERRES
    58   54   55 1    
    59   56   57 2    
    60   56   58 1    
    61   58   59 1    
    62   58   60 1    
    63   60   63 1    
    64   60   61 1    
    65   60   62 1    
    66   63   72 ar   
    67   63   64 ar   
    68   64   66 ar   
    69   64   65 1    
    70   66   68 ar   
    71   66   67 1    
    72   68   69 1    
    73   68   70 ar   
    74   70   71 1    
    75   70   72 ar   
    76   73   74 1    
    77   73   77 1    
    78   73   75 1    
    79   73   76 1    
    80   77   82 2    
    81   77   78 1    
    82   78   79 1    
    83   78   80 1    
    84   78   81 1    
    85   83   86 1    
    86   83   84 1    
    87   83   85 1    
    88   83   87 1    
    89   87   88 1    
    90   87   92 2    
    91   88   91 1    
    92   88   89 1    
    93   88   90 1    
@<TRIPOS>SUBSTRUCTURE
     1 UNK         1 GROUP             0       ****    0 ROOT    
@<TRIPOS>MOLECULE
Cpd5-3000
92   93    1
SMALL
USER_CHARGES


@<TRIPOS>ATOM
      1 C1         20.3193   27.4380   28.8834 C.3       1 UNK         0.0000 
      2 H2         19.4956   27.7626   29.5316 H         1 UNK         0.0000 
      3 H3         21.2400   27.9332   29.2153 H         1 UNK         0.0000 
      4 H4         19.9556   27.8403   27.9300 H         1 UNK         0.0000 
      5 C5         20.4642   25.8493   28.8699 C.3       1 UNK         0.0000 
      6 C6         19.2910   25.3219   28.0772 C.3       1 UNK         0.0000 
      7 H7         19.1717   24.2418   28.2288 H         1 UNK         0.0000 
      8 H8         18.3993   25.7544   28.5475 H         1 UNK         0.0000 
      9 H9         19.3699   25.5877   27.0162 H         1 UNK         0.0000 
     10 C10        20.6177   25.1288   30.2287 C.3       1 UNK         0.0000 
     11 H11        19.6551   24.6400   30.4234 H         1 UNK         0.0000 
     12 H12        21.4610   24.4279   30.1985 H         1 UNK         0.0000 
     13 H13        20.8511   25.7872   31.0734 H         1 UNK         0.0000 
     14 O14        21.5862   25.4906   28.0801 O.3       1 UNK         0.0000 
     15 C15        22.8083   25.9558   28.3374 C.2       1 UNK         0.0000 
     16 O16        23.0849   26.4976   29.4050 O.2       1 UNK         0.0000 
     17 N17        23.6608   25.4805   27.4102 N.am      1 UNK         0.0000 
     18 H18        23.1313   25.1028   26.6337 H         1 UNK         0.0000 
     19 C19        25.0637   25.9968   27.1163 C.3       1 UNK         0.0000 
     20 C20        25.0239   27.5139   26.9665 C.2       1 UNK         0.0000 
     21 N21        25.8104   28.2388   27.8388 N.am      1 UNK         0.0000 
     22 H22        26.4578   27.7240   28.4242 H         1 UNK         0.0000 
     23 O23        24.3204   28.0971   26.1865 O.2       1 UNK         0.0000 
     24 H24        25.6783   25.8173   28.0067 H         1 UNK         0.0000 
     25 C25        25.6528   25.3012   25.8828 C.3       1 UNK         0.0000 
     26 H26        24.9883   25.4470   25.0220 H         1 UNK         0.0000 
     27 H27        25.6696   24.2209   26.0723 H         1 UNK         0.0000 
     28 C28        27.0175   25.8630   25.4093 C.ar      1 UNK         0.0000 
     29 C29        27.0091   26.8441   24.3921 C.ar      1 UNK         0.0000 
     30 C30        28.1732   27.5362   24.0289 C.ar      1 UNK         0.0000 
     31 H31        28.2342   28.2110   23.1802 H         1 UNK         0.0000 
     32 H32        26.0505   27.0400   23.9213 H         1 UNK         0.0000 
     33 C33        28.2792   25.5005   25.9099 C.ar      1 UNK         0.0000 
     34 H34        28.3537   24.6327   26.5588 H         1 UNK         0.0000 
     35 C35        29.4159   26.2416   25.5818 C.ar      1 UNK         0.0000 
     36 H36        30.2437   26.0595   26.2601 H         1 UNK         0.0000 
     37 C37        29.3675   27.2645   24.6805 C.ar      1 UNK         0.0000 
     38 O38        30.5014   28.0019   24.4609 O.3       1 UNK         0.0000 
     39 C39        30.6430   29.1078   25.1826 C.ar      1 UNK         0.0000 
     40 C40        30.5429   30.3563   24.5493 C.ar      1 UNK         0.0000 
     41 C41        30.3862   31.5216   25.2619 C.ar      1 UNK         0.0000 
     42 H42        30.2033   32.4436   24.7189 H         1 UNK         0.0000 
     43 H43        30.3489   30.2536   23.4855 H         1 UNK         0.0000 
     44 C44        30.6167   29.1281   26.5681 C.ar      1 UNK         0.0000 
     45 H45        30.6994   28.2007   27.1265 H         1 UNK         0.0000 
     46 C46        30.4620   30.2675   27.2460 C.ar      1 UNK         0.0000 
     47 H47        30.3589   30.1448   28.3209 H         1 UNK         0.0000 
     48 C48        30.1276   31.4755   26.6075 C.ar      1 UNK         0.0000 
     49 C49        29.4977   32.6728   27.2387 C.2       1 UNK         0.0000 
     50 O50        29.6102   33.8049   26.8373 O.2       1 UNK         0.0000 
     51 C51        28.5938   32.3735   28.4245 C.3       1 UNK         0.0000 
     52 H52        29.2710   31.9522   29.1772 H         1 UNK         0.0000 
     53 H53        28.1386   33.3393   28.6783 H         1 UNK         0.0000 
     54 N54        27.4720   31.4784   28.0000 N.am      1 UNK         0.0000 
     55 H55        27.0997   31.7326   27.0936 H         1 UNK         0.0000 
     56 C56        27.1549   30.2409   28.5893 C.2       1 UNK         0.0000 
     57 O57        27.7135   29.8659   29.6361 O.2       1 UNK         0.0000 
     58 C58        25.8198   29.7091   27.9954 C.3       1 UNK         0.0000 
     59 H59        25.7574   30.1716   27.0023 H         1 UNK         0.0000 
     60 C60        24.5715   30.1481   28.7782 C.3       1 UNK         0.0000 
     61 H61        24.4638   29.7070   29.7768 H         1 UNK         0.0000 
     62 H62        23.7062   29.8311   28.1834 H         1 UNK         0.0000 
     63 C63        24.5316   31.6043   28.8781 C.ar      1 UNK         0.0000 
     64 C64        24.1993   32.4491   27.7952 C.ar      1 UNK         0.0000 
     65 H65        24.0156   32.0437   26.8050 H         1 UNK         0.0000 
     66 C66        24.1120   33.8366   27.9220 C.ar      1 UNK         0.0000 
     67 H67        23.9388   34.4423   27.0379 H         1 UNK         0.0000 
     68 C68        24.5677   34.3900   29.1629 C.ar      1 UNK         0.0000 
     69 H69        24.5947   35.4455   29.4181 H         1 UNK         0.0000 
     70 C70        24.8430   33.4659   30.2034 C.ar      1 UNK         0.0000 
     71 H71        25.2322   33.8191   31.1568 H         1 UNK         0.0000 
     72 N72        24.8331   32.1718   30.0468 N.ar      1 UNK         0.0000 
     73 C73        27.1288   32.2903   22.9550 C.3       1 UNK         0.0000 
     74 H74        26.4720   33.1646   22.8664 H         1 UNK         0.0000 
     75 H75        26.9546   31.6165   22.1079 H         1 UNK         0.0000 
     76 H76        28.1175   32.7030   22.7223 H         1 UNK         0.0000 
     77 S77        27.1919   31.4868   24.5373 S.3       1 UNK         0.0000 
     78 C78        25.8476   30.4456   24.0870 C.3       1 UNK         0.0000 
     79 H79        25.3649   29.9905   24.9597 H         1 UNK         0.0000 
     80 H80        26.0808   29.5793   23.4570 H         1 UNK         0.0000 
     81 H81        25.1075   31.0158   23.5126 H         1 UNK         0.0000 
     82 O82        26.6909   32.4671   25.5507 O.2       1 UNK         0.0000 
     83 C83        22.2592   24.4581   23.0687 C.3       1 UNK         0.0000 
     84 H84        23.3183   24.7448   23.0925 H         1 UNK         0.0000 
     85 H85        21.8479   25.4710   23.1663 H         1 UNK         0.0000 
     86 H86        22.0736   23.9150   22.1338 H         1 UNK         0.0000 
     87 S87        21.7928   23.2830   24.3462 S.3       1 UNK         0.0000 
     88 C88        20.0184   23.5573   24.3490 C.3       1 UNK         0.0000 
     89 H89        19.6324   23.5303   23.3226 H         1 UNK         0.0000 
     90 H90        19.8873   24.5337   24.8315 H         1 UNK         0.0000 
     91 H91        19.5943   22.7377   24.9427 H         1 UNK         0.0000 
     92 O92        22.1974   23.7649   25.7073 O.2       1 UNK         0.0000 
@<TRIPOS>BOND
     1    1    5 1    
     2    1    3 1    
     3    1    2 1    
     4    1    4 1    
     5    5   10 1    
     6    5    6 1    
     7    5   14 1    
     8    6    7 1    
     9    6    8 1    
    10    6    9 1    
    11   10   11 1    
    12   10   13 1    
    13   10   12 1    
    14   14   15 1    
    15   15   16 2    
    16   15   17 am   BACKBONE|DICT|INTERRES
    17   17   18 1    
    18   17   19 1    
    19   19   24 1    
    20   19   20 1    
    21   19   25 1    
    22   20   21 am   BACKBONE|DICT|INTERRES
    23   20   23 2    
    24   21   58 1    
    25   21   22 1    
    26   25   27 1    
    27   25   26 1    
    28   25   28 1    
    29   28   33 ar   
    30   28   29 ar   
    31   29   30 ar   
    32   29   32 1    
    33   30   37 ar   
    34   30   31 1    
    35   33   34 1    
    36   33   35 ar   
    37   35   36 1    
    38   35   37 ar   
    39   37   38 1    
    40   38   39 1    
    41   39   44 ar   
    42   39   40 ar   
    43   40   41 ar   
    44   40   43 1    
    45   41   48 ar   
    46   41   42 1    
    47   44   45 1    
    48   44   46 ar   
    49   46   47 1    
    50   46   48 ar   
    51   48   49 1    
    52   49   51 1    
    53   49   50 2    
    54   51   53 1    
    55   51   52 1    
    56   51   54 1    
    57   54   56 am   BACKBONE|DICT|INTERRES
    58   54   55 1    
    59   56   57 2    
    60   56   58 1    
    61   58   59 1    
    62   58   60 1    
    63   60   63 1    
    64   60   61 1    
    65   60   62 1    
    66   63   72 ar   
    67   63   64 ar   
    68   64   66 ar   
    69   64   65 1    
    70   66   68 ar   
    71   66   67 1    
    72   68   69 1    
    73   68   70 ar   
    74   70   71 1    
    75   70   72 ar   
    76   73   77 1    
    77   73   74 1    
    78   73   75 1    
    79   73   76 1    
    80   77   82 2    
    81   77   78 1    
    82   78   79 1    
    83   78   80 1    
    84   78   81 1    
    85   83   85 1    
    86   83   87 1    
    87   83   84 1    
    88   83   86 1    
    89   87   88 1    
    90   87   92 2    
    91   88   90 1    
    92   88   91 1    
    93   88   89 1    
@<TRIPOS>SUBSTRUCTURE
     1 UNK         1 GROUP             0       ****    0 ROOT    
@<TRIPOS>MOLECULE
Cpd5-3500
92   93    1
SMALL
USER_CHARGES


@<TRIPOS>ATOM
      1 C1         22.6675   26.0797   32.0595 C.3       1 UNK         0.0000 
      2 H2         23.5464   26.7082   32.2487 H         1 UNK         0.0000 
      3 H3         21.9177   26.6047   31.4557 H         1 UNK         0.0000 
      4 H4         22.2941   25.8618   33.0675 H         1 UNK         0.0000 
      5 C5         22.9775   24.8035   31.2505 C.3       1 UNK         0.0000 
      6 C6         21.7256   23.8711   31.0983 C.3       1 UNK         0.0000 
      7 H7         21.8758   23.1119   30.3202 H         1 UNK         0.0000 
      8 H8         21.6808   23.2413   31.9960 H         1 UNK         0.0000 
      9 H9         20.7906   24.4247   30.9481 H         1 UNK         0.0000 
     10 C10        24.1033   24.0880   31.9594 C.3       1 UNK         0.0000 
     11 H11        25.0045   24.7114   32.0061 H         1 UNK         0.0000 
     12 H12        23.8653   23.9089   33.0152 H         1 UNK         0.0000 
     13 H13        24.3021   23.0984   31.5291 H         1 UNK         0.0000 
     14 O14        23.3273   25.1052   29.9226 O.3       1 UNK         0.0000 
     15 C15        24.4602   25.6540   29.5652 C.2       1 UNK         0.0000 
     16 O16        25.0230   26.4835   30.1657 O.2       1 UNK         0.0000 
     17 N17        24.7609   25.3039   28.3349 N.am      1 UNK         0.0000 
     18 H18        24.0816   24.6875   27.9072 H         1 UNK         0.0000 
     19 C19        25.6178   26.0889   27.4049 C.3       1 UNK         0.0000 
     20 C20        25.2302   27.5186   27.1550 C.2       1 UNK         0.0000 
     21 N21        25.6016   28.3840   28.0937 N.am      1 UNK         0.0000 
     22 H22        26.0372   28.0767   28.9555 H         1 UNK         0.0000 
     23 O23        24.6128   27.8820   26.1837 O.2       1 UNK         0.0000 
     24 H24        26.5932   26.2195   27.8868 H         1 UNK         0.0000 
     25 C25        25.9056   25.3292   26.0805 C.3       1 UNK         0.0000 
     26 H26        25.0808   25.4331   25.3655 H         1 UNK         0.0000 
     27 H27        26.0540   24.2577   26.2656 H         1 UNK         0.0000 
     28 C28        27.0962   25.8825   25.4471 C.ar      1 UNK         0.0000 
     29 C29        26.9928   26.9490   24.5083 C.ar      1 UNK         0.0000 
     30 C30        28.1307   27.5210   23.9270 C.ar      1 UNK         0.0000 
     31 H31        28.0954   28.4072   23.2996 H         1 UNK         0.0000 
     32 H32        25.9926   27.3060   24.2838 H         1 UNK         0.0000 
     33 C33        28.4095   25.3363   25.6187 C.ar      1 UNK         0.0000 
     34 H34        28.4886   24.4204   26.1960 H         1 UNK         0.0000 
     35 C35        29.5711   25.9629   25.1329 C.ar      1 UNK         0.0000 
     36 H36        30.5249   25.5438   25.4419 H         1 UNK         0.0000 
     37 C37        29.3957   27.1188   24.3269 C.ar      1 UNK         0.0000 
     38 O38        30.4498   28.0096   24.2185 O.3       1 UNK         0.0000 
     39 C39        30.4134   29.0729   25.1008 C.ar      1 UNK         0.0000 
     40 C40        30.7304   30.3332   24.6259 C.ar      1 UNK         0.0000 
     41 C41        30.5040   31.4755   25.4823 C.ar      1 UNK         0.0000 
     42 H42        30.7521   32.4703   25.1250 H         1 UNK         0.0000 
     43 H43        31.1148   30.4531   23.6166 H         1 UNK         0.0000 
     44 C44        30.0442   28.9083   26.4907 C.ar      1 UNK         0.0000 
     45 H45        29.8195   27.9248   26.8921 H         1 UNK         0.0000 
     46 C46        29.8690   30.0888   27.2650 C.ar      1 UNK         0.0000 
     47 H47        29.5395   29.9469   28.2896 H         1 UNK         0.0000 
     48 C48        30.0009   31.4042   26.7666 C.ar      1 UNK         0.0000 
     49 C49        29.6521   32.6565   27.4729 C.2       1 UNK         0.0000 
     50 O50        30.0714   33.7588   27.0907 O.2       1 UNK         0.0000 
     51 C51        28.5729   32.4877   28.5267 C.3       1 UNK         0.0000 
     52 H52        29.0597   32.0835   29.4234 H         1 UNK         0.0000 
     53 H53        28.1180   33.4205   28.8818 H         1 UNK         0.0000 
     54 N54        27.4343   31.6741   27.9563 N.am      1 UNK         0.0000 
     55 H55        27.0913   31.9702   27.0498 H         1 UNK         0.0000 
     56 C56        26.8873   30.5598   28.4559 C.2       1 UNK         0.0000 
     57 O57        27.3426   30.1864   29.5291 O.2       1 UNK         0.0000 
     58 C58        25.7388   29.8131   27.7309 C.3       1 UNK         0.0000 
     59 H59        25.9334   29.9329   26.6586 H         1 UNK         0.0000 
     60 C60        24.4566   30.6019   28.1180 C.3       1 UNK         0.0000 
     61 H61        24.5718   31.0474   29.1131 H         1 UNK         0.0000 
     62 H62        23.5491   29.9870   28.1628 H         1 UNK         0.0000 
     63 C63        24.1165   31.6992   27.1068 C.ar      1 UNK         0.0000 
     64 C64        24.2128   33.0668   27.4464 C.ar      1 UNK         0.0000 
     65 H65        24.6470   33.4563   28.3630 H         1 UNK         0.0000 
     66 C66        23.5853   33.9808   26.5554 C.ar      1 UNK         0.0000 
     67 H67        23.5891   35.0439   26.7797 H         1 UNK         0.0000 
     68 C68        23.1160   33.4798   25.3389 C.ar      1 UNK         0.0000 
     69 H69        22.6724   34.1500   24.6078 H         1 UNK         0.0000 
     70 C70        23.0918   32.0642   25.1534 C.ar      1 UNK         0.0000 
     71 H71        22.6966   31.7216   24.1980 H         1 UNK         0.0000 
     72 N72        23.5028   31.2025   26.0712 N.ar      1 UNK         0.0000 
     73 C73        20.7959   22.6807   27.6059 C.3       1 UNK         0.0000 
     74 H74        20.9199   21.9711   26.7795 H         1 UNK         0.0000 
     75 H75        19.7238   22.6726   27.8356 H         1 UNK         0.0000 
     76 H76        21.2440   22.2380   28.5041 H         1 UNK         0.0000 
     77 S77        21.4391   24.2172   27.0308 S.3       1 UNK         0.0000 
     78 C78        20.2682   24.4487   25.6514 C.3       1 UNK         0.0000 
     79 H79        20.0485   23.4635   25.2216 H         1 UNK         0.0000 
     80 H80        20.6236   25.0789   24.8269 H         1 UNK         0.0000 
     81 H81        19.3759   24.8204   26.1699 H         1 UNK         0.0000 
     82 O82        22.8534   23.8793   26.5439 O.2       1 UNK         0.0000 
     83 C83        26.8328   30.9983   23.8170 C.3       1 UNK         0.0000 
     84 H84        27.8913   31.0659   24.0983 H         1 UNK         0.0000 
     85 H85        26.7079   30.6141   22.7972 H         1 UNK         0.0000 
     86 H86        26.2203   30.4316   24.5276 H         1 UNK         0.0000 
     87 S87        26.1962   32.7807   23.8787 S.3       1 UNK         0.0000 
     88 C88        27.4399   33.5289   22.8018 C.3       1 UNK         0.0000 
     89 H89        28.3576   33.7965   23.3396 H         1 UNK         0.0000 
     90 H90        26.9360   34.3961   22.3570 H         1 UNK         0.0000 
     91 H91        27.5979   32.7258   22.0718 H         1 UNK         0.0000 
     92 O92        26.6681   33.0965   25.2643 O.2       1 UNK         0.0000 
@<TRIPOS>BOND
     1    1    2 1    
     2    1    4 1    
     3    1    3 1    
     4    1    5 1    
     5    5   10 1    
     6    5    6 1    
     7    5   14 1    
     8    6    9 1    
     9    6    8 1    
    10    6    7 1    
    11   10   11 1    
    12   10   12 1    
    13   10   13 1    
    14   14   15 1    
    15   15   16 2    
    16   15   17 am   BACKBONE|DICT|INTERRES
    17   17   18 1    
    18   17   19 1    
    19   19   20 1    
    20   19   24 1    
    21   19   25 1    
    22   20   21 am   BACKBONE|DICT|INTERRES
    23   20   23 2    
    24   21   22 1    
    25   21   58 1    
    26   25   26 1    
    27   25   27 1    
    28   25   28 1    
    29   28   29 ar   
    30   28   33 ar   
    31   29   30 ar   
    32   29   32 1    
    33   30   37 ar   
    34   30   31 1    
    35   33   34 1    
    36   33   35 ar   
    37   35   36 1    
    38   35   37 ar   
    39   37   38 1    
    40   38   39 1    
    41   39   44 ar   
    42   39   40 ar   
    43   40   41 ar   
    44   40   43 1    
    45   41   48 ar   
    46   41   42 1    
    47   44   45 1    
    48   44   46 ar   
    49   46   47 1    
    50   46   48 ar   
    51   48   49 1    
    52   49   51 1    
    53   49   50 2    
    54   51   53 1    
    55   51   52 1    
    56   51   54 1    
    57   54   56 am   BACKBONE|DICT|INTERRES
    58   54   55 1    
    59   56   57 2    
    60   56   58 1    
    61   58   59 1    
    62   58   60 1    
    63   60   61 1    
    64   60   62 1    
    65   60   63 1    
    66   63   64 ar   
    67   63   72 ar   
    68   64   65 1    
    69   64   66 ar   
    70   66   67 1    
    71   66   68 ar   
    72   68   69 1    
    73   68   70 ar   
    74   70   72 ar   
    75   70   71 1    
    76   73   75 1    
    77   73   76 1    
    78   73   74 1    
    79   73   77 1    
    80   77   78 1    
    81   77   82 2    
    82   78   81 1    
    83   78   79 1    
    84   78   80 1    
    85   83   84 1    
    86   83   87 1    
    87   83   86 1    
    88   83   85 1    
    89   87   92 2    
    90   87   88 1    
    91   88   89 1    
    92   88   90 1    
    93   88   91 1    
@<TRIPOS>SUBSTRUCTURE
     1 UNK         1 GROUP             0       ****    0 ROOT    
@<TRIPOS>MOLECULE
Cpd5-4000-MEC
92   93    1
SMALL
USER_CHARGES


@<TRIPOS>ATOM
      1 C1         24.5070   23.7450   32.0480 C.3       1 UNK         0.0000 
      2 H2         25.6010   23.6560   32.0450 H         1 UNK         0.0000 
      3 H3         24.2020   24.7990   32.0630 H         1 UNK         0.0000 
      4 H4         24.1650   23.1780   32.9220 H         1 UNK         0.0000 
      5 C5         23.8080   23.1440   30.7800 C.3       1 UNK         0.0000 
      6 C6         22.3200   23.0350   31.0800 C.3       1 UNK         0.0000 
      7 H7         21.9080   24.0430   31.2110 H         1 UNK         0.0000 
      8 H8         21.7230   22.5740   30.2840 H         1 UNK         0.0000 
      9 H9         22.1490   22.4550   31.9940 H         1 UNK         0.0000 
     10 C10        24.4160   21.8210   30.4230 C.3       1 UNK         0.0000 
     11 H11        25.3590   21.8600   29.8650 H         1 UNK         0.0000 
     12 H12        24.5520   21.2540   31.3520 H         1 UNK         0.0000 
     13 H13        23.7190   21.3400   29.7270 H         1 UNK         0.0000 
     14 O14        23.8680   24.1180   29.7160 O.3       1 UNK         0.0000 
     15 C15        25.0830   24.5000   29.2400 C.2       1 UNK         0.0000 
     16 O16        26.2030   24.1260   29.5270 O.2       1 UNK         0.0000 
     17 N17        24.7250   25.4130   28.2460 N.am      1 UNK         0.0000 
     18 H18        23.7380   25.6120   28.1380 H         1 UNK         0.0000 
     19 C19        25.7150   26.1230   27.4390 C.3       1 UNK         0.0000 
     20 C20        25.3480   27.5980   27.2390 C.2       1 UNK         0.0000 
     21 N21        25.8820   28.5270   28.1340 N.am      1 UNK         0.0000 
     22 H22        26.6520   28.2460   28.7290 H         1 UNK         0.0000 
     23 O23        24.5230   27.9390   26.3890 O.2       1 UNK         0.0000 
     24 H24        26.6570   26.2010   27.9960 H         1 UNK         0.0000 
     25 C25        25.9120   25.4020   26.0830 C.3       1 UNK         0.0000 
     26 H26        24.9980   25.6600   25.5340 H         1 UNK         0.0000 
     27 H27        25.9590   24.3080   26.1480 H         1 UNK         0.0000 
     28 C28        27.1910   25.9000   25.3250 C.ar      1 UNK         0.0000 
     29 C29        27.1140   26.9210   24.3860 C.ar      1 UNK         0.0000 
     30 C30        28.2420   27.5600   23.8470 C.ar      1 UNK         0.0000 
     31 H31        28.1390   28.4530   23.2380 H         1 UNK         0.0000 
     32 H32        26.1920   27.4510   24.1660 H         1 UNK         0.0000 
     33 C33        28.4730   25.4130   25.6080 C.ar      1 UNK         0.0000 
     34 H34        28.7180   24.5910   26.2740 H         1 UNK         0.0000 
     35 C35        29.6490   26.0730   25.0930 C.ar      1 UNK         0.0000 
     36 H36        30.6610   25.8140   25.3890 H         1 UNK         0.0000 
     37 C37        29.5000   27.1850   24.3070 C.ar      1 UNK         0.0000 
     38 O38        30.5940   27.9620   24.0990 O.3       1 UNK         0.0000 
     39 C39        30.6190   29.0550   24.9060 C.ar      1 UNK         0.0000 
     40 C40        30.3570   30.2970   24.3490 C.ar      1 UNK         0.0000 
     41 C41        30.0360   31.3620   25.2490 C.ar      1 UNK         0.0000 
     42 H42        29.6460   32.2920   24.8470 H         1 UNK         0.0000 
     43 H43        30.0710   30.4550   23.3140 H         1 UNK         0.0000 
     44 C44        30.9290   28.9610   26.2520 C.ar      1 UNK         0.0000 
     45 H45        31.4150   28.0580   26.6080 H         1 UNK         0.0000 
     46 C46        30.6040   29.9410   27.1250 C.ar      1 UNK         0.0000 
     47 H47        30.7950   29.7030   28.1670 H         1 UNK         0.0000 
     48 C48        30.1190   31.1070   26.6350 C.ar      1 UNK         0.0000 
     49 C49        29.6360   32.1740   27.6020 C.2       1 UNK         0.0000 
     50 O50        29.8730   33.3800   27.4270 O.2       1 UNK         0.0000 
     51 C51        28.7420   31.7030   28.7640 C.3       1 UNK         0.0000 
     52 H52        29.4730   31.2840   29.4650 H         1 UNK         0.0000 
     53 H53        28.3880   32.5930   29.2980 H         1 UNK         0.0000 
     54 N54        27.6510   30.7730   28.3600 N.am      1 UNK         0.0000 
     55 H55        27.9330   29.9330   27.8680 H         1 UNK         0.0000 
     56 C56        26.2870   31.0200   28.6360 C.2       1 UNK         0.0000 
     57 O57        25.9830   32.1480   28.9740 O.2       1 UNK         0.0000 
     58 C58        25.2960   29.8780   28.3630 C.3       1 UNK         0.0000 
     59 H59        24.6850   30.1650   27.4980 H         1 UNK         0.0000 
     60 C60        24.3260   29.7660   29.6010 C.3       1 UNK         0.0000 
     61 H61        23.8970   30.7150   29.9470 H         1 UNK         0.0000 
     62 H62        24.8100   29.3890   30.5100 H         1 UNK         0.0000 
     63 C63        23.0970   28.9180   29.2580 C.ar      1 UNK         0.0000 
     64 C64        22.8760   27.6440   29.8490 C.ar      1 UNK         0.0000 
     65 H65        23.5580   27.3110   30.6260 H         1 UNK         0.0000 
     66 C66        21.6620   26.9660   29.5520 C.ar      1 UNK         0.0000 
     67 H67        21.4030   26.0620   30.0950 H         1 UNK         0.0000 
     68 C68        20.7500   27.6640   28.7350 C.ar      1 UNK         0.0000 
     69 H69        19.7110   27.3800   28.5990 H         1 UNK         0.0000 
     70 C70        21.1110   28.8910   28.1690 C.ar      1 UNK         0.0000 
     71 H71        20.3450   29.4310   27.6140 H         1 UNK         0.0000 
     72 N72        22.2710   29.5230   28.4000 N.ar      1 UNK         0.0000 
     73 C73        18.0500   41.1250   15.5680 C.3       1 UNK         0.0000 
     74 H74        17.2300   40.3970   15.5860 H         1 UNK         0.0000 
     75 H75        17.7740   42.0770   15.0990 H         1 UNK         0.0000 
     76 H76        18.3690   41.3700   16.5890 H         1 UNK         0.0000 
     77 S77        19.4720   40.4460   14.5550 S.3       1 UNK         0.0000 
     78 C78        19.6110   38.9620   15.6440 C.3       1 UNK         0.0000 
     79 H79        19.6900   39.3030   16.6830 H         1 UNK         0.0000 
     80 H80        20.5330   38.3940   15.4710 H         1 UNK         0.0000 
     81 H81        18.8200   38.2060   15.5680 H         1 UNK         0.0000 
     82 O82        20.7070   41.3180   14.7610 O.2       1 UNK         0.0000 
     83 C83        21.2800   24.6340   -3.0950 C.3       1 UNK         0.0000 
     84 H84        22.0110   23.8220   -2.9990 H         1 UNK         0.0000 
     85 H85        20.6350   24.5500   -2.2110 H         1 UNK         0.0000 
     86 H86        21.7100   25.6390   -3.1800 H         1 UNK         0.0000 
     87 S87        20.2960   24.3820   -4.4980 S.3       1 UNK         0.0000 
     88 C88        18.9670   25.4870   -4.1530 C.3       1 UNK         0.0000 
     89 H89        18.1290   24.9900   -3.6490 H         1 UNK         0.0000 
     90 H90        18.6050   25.8980   -5.1040 H         1 UNK         0.0000 
     91 H91        19.3480   26.3200   -3.5490 H         1 UNK         0.0000 
     92 O92        19.6880   23.0610   -4.3470 O.2       1 UNK         0.0000 
@<TRIPOS>BOND
     1    1    3 1    
     2    1    4 1    
     3    1    2 1    
     4    1    5 1    
     5    5    6 1    
     6    5   10 1    
     7    5   14 1    
     8    6    7 1    
     9    6    9 1    
    10    6    8 1    
    11   10   12 1    
    12   10   11 1    
    13   10   13 1    
    14   14   15 1    
    15   15   16 2    
    16   15   17 am   BACKBONE|DICT|INTERRES
    17   17   18 1    
    18   17   19 1    
    19   19   24 1    
    20   19   20 1    
    21   19   25 1    
    22   20   21 am   BACKBONE|DICT|INTERRES
    23   20   23 2    
    24   21   58 1    
    25   21   22 1    
    26   25   27 1    
    27   25   26 1    
    28   25   28 1    
    29   28   33 ar   
    30   28   29 ar   
    31   29   30 ar   
    32   29   32 1    
    33   30   37 ar   
    34   30   31 1    
    35   33   34 1    
    36   33   35 ar   
    37   35   36 1    
    38   35   37 ar   
    39   37   38 1    
    40   38   39 1    
    41   39   44 ar   
    42   39   40 ar   
    43   40   41 ar   
    44   40   43 1    
    45   41   48 ar   
    46   41   42 1    
    47   44   45 1    
    48   44   46 ar   
    49   46   47 1    
    50   46   48 ar   
    51   48   49 1    
    52   49   51 1    
    53   49   50 2    
    54   51   53 1    
    55   51   52 1    
    56   51   54 1    
    57   54   56 am   BACKBONE|DICT|INTERRES
    58   54   55 1    
    59   56   57 2    
    60   56   58 1    
    61   58   59 1    
    62   58   60 1    
    63   60   61 1    
    64   60   62 1    
    65   60   63 1    
    66   63   64 ar   
    67   63   72 ar   
    68   64   65 1    
    69   64   66 ar   
    70   66   67 1    
    71   66   68 ar   
    72   68   69 1    
    73   68   70 ar   
    74   70   72 ar   
    75   70   71 1    
    76   73   74 1    
    77   73   76 1    
    78   73   75 1    
    79   73   77 1    
    80   77   82 2    
    81   77   78 1    
    82   78   79 1    
    83   78   80 1    
    84   78   81 1    
    85   83   84 1    
    86   83   85 1    
    87   83   86 1    
    88   83   87 1    
    89   87   92 2    
    90   87   88 1    
    91   88   89 1    
    92   88   91 1    
    93   88   90 1    
@<TRIPOS>SUBSTRUCTURE
     1 UNK         1 GROUP             0       ****    0 ROOT    
@<TRIPOS>MOLECULE
Cpd5-4500-MRC
92   93    1
SMALL
USER_CHARGES


@<TRIPOS>ATOM
      1 C1         21.8389   25.7737   30.9697 C.3       1 UNK         0.0000 
      2 H2         21.2666   25.6314   31.8943 H         1 UNK         0.0000 
      3 H3         22.3669   26.7330   31.0304 H         1 UNK         0.0000 
      4 H4         21.1090   25.6721   30.1567 H         1 UNK         0.0000 
      5 C5         22.7562   24.5365   30.9404 C.3       1 UNK         0.0000 
      6 C6         21.9071   23.2192   31.0025 C.3       1 UNK         0.0000 
      7 H7         22.5807   22.3549   30.9421 H         1 UNK         0.0000 
      8 H8         21.3554   23.1613   31.9484 H         1 UNK         0.0000 
      9 H9         21.2000   23.1778   30.1653 H         1 UNK         0.0000 
     10 C10        23.8323   24.4290   32.0625 C.3       1 UNK         0.0000 
     11 H11        24.2520   25.4420   32.0701 H         1 UNK         0.0000 
     12 H12        23.3818   24.1406   33.0202 H         1 UNK         0.0000 
     13 H13        24.4902   23.6291   31.7026 H         1 UNK         0.0000 
     14 O14        23.4046   24.5584   29.6703 O.3       1 UNK         0.0000 
     15 C15        24.2405   25.5605   29.2883 C.2       1 UNK         0.0000 
     16 O16        24.8369   26.4198   29.9189 O.2       1 UNK         0.0000 
     17 N17        24.4224   25.4428   27.9998 N.am      1 UNK         0.0000 
     18 H18        24.0913   24.5648   27.6178 H         1 UNK         0.0000 
     19 C19        25.5131   26.1189   27.1950 C.3       1 UNK         0.0000 
     20 C20        25.3355   27.5988   27.0968 C.2       1 UNK         0.0000 
     21 N21        26.0584   28.4202   27.9137 N.am      1 UNK         0.0000 
     22 H22        26.5208   27.9679   28.6938 H         1 UNK         0.0000 
     23 O23        24.5236   27.9883   26.2427 O.2       1 UNK         0.0000 
     24 H24        26.4529   25.9422   27.7316 H         1 UNK         0.0000 
     25 C25        25.7026   25.3971   25.8146 C.3       1 UNK         0.0000 
     26 H26        24.8756   25.7074   25.1652 H         1 UNK         0.0000 
     27 H27        25.6643   24.3044   25.9035 H         1 UNK         0.0000 
     28 C28        27.0242   25.8515   25.1906 C.ar      1 UNK         0.0000 
     29 C29        27.0168   27.1135   24.5243 C.ar      1 UNK         0.0000 
     30 C30        28.2531   27.6172   24.0448 C.ar      1 UNK         0.0000 
     31 H31        28.2581   28.5447   23.4797 H         1 UNK         0.0000 
     32 H32        26.0914   27.6628   24.3792 H         1 UNK         0.0000 
     33 C33        28.2350   25.2223   25.5343 C.ar      1 UNK         0.0000 
     34 H34        28.2192   24.3467   26.1765 H         1 UNK         0.0000 
     35 C35        29.4473   25.8891   25.2436 C.ar      1 UNK         0.0000 
     36 H36        30.3796   25.5161   25.6562 H         1 UNK         0.0000 
     37 C37        29.5131   27.0713   24.5350 C.ar      1 UNK         0.0000 
     38 O38        30.6683   27.7827   24.5871 O.3       1 UNK         0.0000 
     39 C39        30.6512   29.0264   25.2165 C.ar      1 UNK         0.0000 
     40 C40        30.6172   30.2499   24.5340 C.ar      1 UNK         0.0000 
     41 C41        30.2424   31.4522   25.1833 C.ar      1 UNK         0.0000 
     42 H42        30.0959   32.3346   24.5668 H         1 UNK         0.0000 
     43 H43        30.8774   30.3016   23.4810 H         1 UNK         0.0000 
     44 C44        30.3442   29.0149   26.5741 C.ar      1 UNK         0.0000 
     45 H45        30.3605   28.0917   27.1465 H         1 UNK         0.0000 
     46 C46        30.0642   30.2017   27.2350 C.ar      1 UNK         0.0000 
     47 H47        30.0505   30.3464   28.3116 H         1 UNK         0.0000 
     48 C48        29.8913   31.4092   26.5780 C.ar      1 UNK         0.0000 
     49 C49        29.4343   32.6052   27.3271 C.2       1 UNK         0.0000 
     50 O50        29.6422   33.7117   26.8423 O.2       1 UNK         0.0000 
     51 C51        28.5063   32.4309   28.5605 C.3       1 UNK         0.0000 
     52 H52        29.0479   31.9341   29.3754 H         1 UNK         0.0000 
     53 H53        28.1774   33.3940   28.9703 H         1 UNK         0.0000 
     54 N54        27.2228   31.8184   28.2615 N.am      1 UNK         0.0000 
     55 H55        26.6382   32.1706   27.5137 H         1 UNK         0.0000 
     56 C56        26.9864   30.5213   28.7270 C.2       1 UNK         0.0000 
     57 O57        27.6084   30.0259   29.6145 O.2       1 UNK         0.0000 
     58 C58        25.7729   29.8632   28.0148 C.3       1 UNK         0.0000 
     59 H59        25.6022   30.3245   27.0345 H         1 UNK         0.0000 
     60 C60        24.4571   29.8798   28.8697 C.3       1 UNK         0.0000 
     61 H61        24.5803   29.2896   29.7867 H         1 UNK         0.0000 
     62 H62        23.7089   29.3360   28.2797 H         1 UNK         0.0000 
     63 C63        23.9839   31.3166   29.0677 C.ar      1 UNK         0.0000 
     64 C64        23.4562   31.9987   27.9324 C.ar      1 UNK         0.0000 
     65 H65        23.3441   31.4017   27.0323 H         1 UNK         0.0000 
     66 C66        23.1674   33.3360   28.0913 C.ar      1 UNK         0.0000 
     67 H67        22.8094   33.8814   27.2226 H         1 UNK         0.0000 
     68 C68        23.3630   33.9058   29.3540 C.ar      1 UNK         0.0000 
     69 H69        23.0817   34.9487   29.4651 H         1 UNK         0.0000 
     70 C70        23.7132   33.1128   30.4884 C.ar      1 UNK         0.0000 
     71 H71        23.7977   33.5449   31.4846 H         1 UNK         0.0000 
     72 N72        24.0240   31.8528   30.2748 N.ar      1 UNK         0.0000 
     73 C73        24.2425   33.2692   24.4167 C.3       1 UNK         0.0000 
     74 H74        23.7054   32.4937   24.9751 H         1 UNK         0.0000 
     75 H75        23.9233   33.0703   23.3856 H         1 UNK         0.0000 
     76 H76        23.8654   34.2535   24.7204 H         1 UNK         0.0000 
     77 S77        25.9793   33.3576   24.7603 S.3       1 UNK         0.0000 
     78 C78        26.5220   31.6317   24.4134 C.3       1 UNK         0.0000 
     79 H79        26.5261   31.4449   23.3332 H         1 UNK         0.0000 
     80 H80        25.7493   30.9941   24.8613 H         1 UNK         0.0000 
     81 H81        27.5087   31.5021   24.8753 H         1 UNK         0.0000 
     82 O82        26.0941   33.4888   26.2006 O.2       1 UNK         0.0000 
     83 C83        20.5380   24.0223   26.1467 C.3       1 UNK         0.0000 
     84 H84        19.8087   24.3754   25.4082 H         1 UNK         0.0000 
     85 H85        20.2616   24.3469   27.1576 H         1 UNK         0.0000 
     86 H86        20.5062   22.9259   26.1545 H         1 UNK         0.0000 
     87 S87        22.1728   24.7077   25.6775 S.3       1 UNK         0.0000 
     88 C88        21.8805   24.3352   23.9355 C.3       1 UNK         0.0000 
     89 H89        21.7535   23.2486   23.8548 H         1 UNK         0.0000 
     90 H90        22.7795   24.7384   23.4547 H         1 UNK         0.0000 
     91 H91        20.9525   24.8262   23.6188 H         1 UNK         0.0000 
     92 O92        23.1658   23.6906   26.1167 O.2       1 UNK         0.0000 
@<TRIPOS>BOND
     1    1    3 1    
     2    1    2 1    
     3    1    4 1    
     4    1    5 1    
     5    5    6 1    
     6    5   10 1    
     7    5   14 1    
     8    6    8 1    
     9    6    7 1    
    10    6    9 1    
    11   10   11 1    
    12   10   12 1    
    13   10   13 1    
    14   14   15 1    
    15   15   16 2    
    16   15   17 am   BACKBONE|DICT|INTERRES
    17   17   18 1    
    18   17   19 1    
    19   19   24 1    
    20   19   20 1    
    21   19   25 1    
    22   20   21 am   BACKBONE|DICT|INTERRES
    23   20   23 2    
    24   21   58 1    
    25   21   22 1    
    26   25   27 1    
    27   25   26 1    
    28   25   28 1    
    29   28   33 ar   
    30   28   29 ar   
    31   29   30 ar   
    32   29   32 1    
    33   30   37 ar   
    34   30   31 1    
    35   33   34 1    
    36   33   35 ar   
    37   35   36 1    
    38   35   37 ar   
    39   37   38 1    
    40   38   39 1    
    41   39   44 ar   
    42   39   40 ar   
    43   40   41 ar   
    44   40   43 1    
    45   41   48 ar   
    46   41   42 1    
    47   44   45 1    
    48   44   46 ar   
    49   46   47 1    
    50   46   48 ar   
    51   48   49 1    
    52   49   51 1    
    53   49   50 2    
    54   51   53 1    
    55   51   52 1    
    56   51   54 1    
    57   54   56 am   BACKBONE|DICT|INTERRES
    58   54   55 1    
    59   56   57 2    
    60   56   58 1    
    61   58   59 1    
    62   58   60 1    
    63   60   63 1    
    64   60   61 1    
    65   60   62 1    
    66   63   72 ar   
    67   63   64 ar   
    68   64   66 ar   
    69   64   65 1    
    70   66   68 ar   
    71   66   67 1    
    72   68   69 1    
    73   68   70 ar   
    74   70   71 1    
    75   70   72 ar   
    76   73   76 1    
    77   73   77 1    
    78   73   74 1    
    79   73   75 1    
    80   77   82 2    
    81   77   78 1    
    82   78   80 1    
    83   78   81 1    
    84   78   79 1    
    85   83   85 1    
    86   83   84 1    
    87   83   86 1    
    88   83   87 1    
    89   87   92 2    
    90   87   88 1    
    91   88   89 1    
    92   88   90 1    
    93   88   91 1    
@<TRIPOS>SUBSTRUCTURE
     1 UNK         1 GROUP             0       ****    0 ROOT    
@<TRIPOS>MOLECULE
Cpd5-5000
92   93    1
SMALL
USER_CHARGES


@<TRIPOS>ATOM
      1 C1         21.2162   26.2715   30.4600 C.3       1 UNK         0.0000 
      2 H2         20.5385   26.3936   31.3132 H         1 UNK         0.0000 
      3 H3         21.9224   27.1101   30.4956 H         1 UNK         0.0000 
      4 H4         20.7095   26.3648   29.4916 H         1 UNK         0.0000 
      5 C5         22.0615   24.9919   30.5442 C.3       1 UNK         0.0000 
      6 C6         21.1241   23.7883   30.6661 C.3       1 UNK         0.0000 
      7 H7         21.7134   22.8905   30.8888 H         1 UNK         0.0000 
      8 H8         20.4104   23.9129   31.4910 H         1 UNK         0.0000 
      9 H9         20.6124   23.6928   29.7004 H         1 UNK         0.0000 
     10 C10        22.8897   24.8714   31.8377 C.3       1 UNK         0.0000 
     11 H11        23.4976   25.7681   32.0115 H         1 UNK         0.0000 
     12 H12        22.2964   24.6507   32.7339 H         1 UNK         0.0000 
     13 H13        23.6167   24.0620   31.7005 H         1 UNK         0.0000 
     14 O14        22.7271   24.8926   29.3183 O.3       1 UNK         0.0000 
     15 C15        23.8093   25.6847   29.0477 C.2       1 UNK         0.0000 
     16 O16        24.3667   26.4662   29.7967 O.2       1 UNK         0.0000 
     17 N17        24.2475   25.4311   27.7387 N.am      1 UNK         0.0000 
     18 H18        23.6707   24.7821   27.2161 H         1 UNK         0.0000 
     19 C19        25.4368   26.0194   27.0826 C.3       1 UNK         0.0000 
     20 C20        25.2741   27.5938   27.0453 C.2       1 UNK         0.0000 
     21 N21        25.9915   28.4041   27.9146 N.am      1 UNK         0.0000 
     22 H22        26.5289   27.9113   28.6174 H         1 UNK         0.0000 
     23 O23        24.4859   28.1411   26.2294 O.2       1 UNK         0.0000 
     24 H24        26.2930   25.8191   27.7378 H         1 UNK         0.0000 
     25 C25        25.7425   25.3289   25.6857 C.3       1 UNK         0.0000 
     26 H26        24.9914   25.7231   24.9900 H         1 UNK         0.0000 
     27 H27        25.5731   24.2453   25.6596 H         1 UNK         0.0000 
     28 C28        27.0623   25.8981   25.2941 C.ar      1 UNK         0.0000 
     29 C29        27.0666   26.8801   24.2792 C.ar      1 UNK         0.0000 
     30 C30        28.3340   27.4172   23.9264 C.ar      1 UNK         0.0000 
     31 H31        28.2809   28.0592   23.0520 H         1 UNK         0.0000 
     32 H32        26.1615   27.3695   23.9301 H         1 UNK         0.0000 
     33 C33        28.2730   25.4565   25.8822 C.ar      1 UNK         0.0000 
     34 H34        28.2912   24.7316   26.6906 H         1 UNK         0.0000 
     35 C35        29.4819   26.0768   25.5050 C.ar      1 UNK         0.0000 
     36 H36        30.3679   25.7805   26.0580 H         1 UNK         0.0000 
     37 C37        29.5415   27.0567   24.4721 C.ar      1 UNK         0.0000 
     38 O38        30.6370   27.8660   24.4924 O.3       1 UNK         0.0000 
     39 C39        30.4645   29.0196   25.1793 C.ar      1 UNK         0.0000 
     40 C40        30.2386   30.2226   24.5262 C.ar      1 UNK         0.0000 
     41 C41        29.9984   31.4190   25.2006 C.ar      1 UNK         0.0000 
     42 H42        29.8024   32.2747   24.5615 H         1 UNK         0.0000 
     43 H43        30.3948   30.1836   23.4529 H         1 UNK         0.0000 
     44 C44        30.4429   29.0624   26.5723 C.ar      1 UNK         0.0000 
     45 H45        30.5387   28.1273   27.1177 H         1 UNK         0.0000 
     46 C46        30.0053   30.2222   27.3020 C.ar      1 UNK         0.0000 
     47 H47        30.0807   30.1926   28.3846 H         1 UNK         0.0000 
     48 C48        29.8518   31.4031   26.6304 C.ar      1 UNK         0.0000 
     49 C49        29.5043   32.6588   27.4042 C.2       1 UNK         0.0000 
     50 O50        29.9974   33.7374   27.0544 O.2       1 UNK         0.0000 
     51 C51        28.5528   32.4814   28.5462 C.3       1 UNK         0.0000 
     52 H52        29.0859   32.0017   29.3762 H         1 UNK         0.0000 
     53 H53        28.2455   33.4641   28.9262 H         1 UNK         0.0000 
     54 N54        27.4307   31.6940   28.0394 N.am      1 UNK         0.0000 
     55 H55        26.9154   32.0457   27.2421 H         1 UNK         0.0000 
     56 C56        27.0300   30.5047   28.6338 C.2       1 UNK         0.0000 
     57 O57        27.6976   30.0110   29.5743 O.2       1 UNK         0.0000 
     58 C58        25.7336   29.8267   28.1189 C.3       1 UNK         0.0000 
     59 H59        25.4494   30.3402   27.1917 H         1 UNK         0.0000 
     60 C60        24.5516   29.8369   29.1175 C.3       1 UNK         0.0000 
     61 H61        24.8293   29.3737   30.0722 H         1 UNK         0.0000 
     62 H62        23.6557   29.3543   28.7089 H         1 UNK         0.0000 
     63 C63        24.1842   31.2760   29.3439 C.ar      1 UNK         0.0000 
     64 C64        24.7404   31.9513   30.4101 C.ar      1 UNK         0.0000 
     65 H65        25.3843   31.4185   31.1037 H         1 UNK         0.0000 
     66 C66        24.4337   33.2960   30.5578 C.ar      1 UNK         0.0000 
     67 H67        24.7715   33.8329   31.4389 H         1 UNK         0.0000 
     68 C68        23.6591   33.8874   29.5699 C.ar      1 UNK         0.0000 
     69 H69        23.3906   34.9328   29.6886 H         1 UNK         0.0000 
     70 C70        23.1456   33.0943   28.5220 C.ar      1 UNK         0.0000 
     71 H71        22.4223   33.4272   27.7794 H         1 UNK         0.0000 
     72 N72        23.4074   31.7787   28.4734 N.ar      1 UNK         0.0000 
     73 C73        20.8390   25.0192   24.3502 C.3       1 UNK         0.0000 
     74 H74        20.8821   25.7777   25.1413 H         1 UNK         0.0000 
     75 H75        19.8177   24.7803   24.0297 H         1 UNK         0.0000 
     76 H76        21.4992   25.1473   23.4832 H         1 UNK         0.0000 
     77 S77        21.4764   23.5689   25.1721 S.3       1 UNK         0.0000 
     78 C78        20.4814   23.6892   26.6271 C.3       1 UNK         0.0000 
     79 H79        19.4316   23.9450   26.4389 H         1 UNK         0.0000 
     80 H80        20.8858   24.4554   27.2997 H         1 UNK         0.0000 
     81 H81        20.5217   22.7286   27.1543 H         1 UNK         0.0000 
     82 O82        22.8346   23.8911   25.6402 O.2       1 UNK         0.0000 
     83 C83        25.8468   32.6720   22.9562 C.3       1 UNK         0.0000 
     84 H84        26.2535   32.0345   22.1610 H         1 UNK         0.0000 
     85 H85        25.7657   33.7090   22.6084 H         1 UNK         0.0000 
     86 H86        24.8917   32.1583   23.1186 H         1 UNK         0.0000 
     87 S87        26.9687   32.4718   24.3578 S.3       1 UNK         0.0000 
     88 C88        26.9155   30.6814   24.4124 C.3       1 UNK         0.0000 
     89 H89        27.5359   30.2391   25.2011 H         1 UNK         0.0000 
     90 H90        27.1095   30.3049   23.4009 H         1 UNK         0.0000 
     91 H91        25.8798   30.3983   24.6369 H         1 UNK         0.0000 
     92 O92        26.2587   33.0366   25.5170 O.2       1 UNK         0.0000 
@<TRIPOS>BOND
     1    1    3 1    
     2    1    5 1    
     3    1    2 1    
     4    1    4 1    
     5    5    6 1    
     6    5   10 1    
     7    5   14 1    
     8    6    7 1    
     9    6    8 1    
    10    6    9 1    
    11   10   11 1    
    12   10   12 1    
    13   10   13 1    
    14   14   15 1    
    15   15   16 2    
    16   15   17 am   BACKBONE|DICT|INTERRES
    17   17   18 1    
    18   17   19 1    
    19   19   24 1    
    20   19   20 1    
    21   19   25 1    
    22   20   21 am   BACKBONE|DICT|INTERRES
    23   20   23 2    
    24   21   58 1    
    25   21   22 1    
    26   25   26 1    
    27   25   27 1    
    28   25   28 1    
    29   28   33 ar   
    30   28   29 ar   
    31   29   30 ar   
    32   29   32 1    
    33   30   37 ar   
    34   30   31 1    
    35   33   34 1    
    36   33   35 ar   
    37   35   36 1    
    38   35   37 ar   
    39   37   38 1    
    40   38   39 1    
    41   39   44 ar   
    42   39   40 ar   
    43   40   41 ar   
    44   40   43 1    
    45   41   48 ar   
    46   41   42 1    
    47   44   45 1    
    48   44   46 ar   
    49   46   47 1    
    50   46   48 ar   
    51   48   49 1    
    52   49   51 1    
    53   49   50 2    
    54   51   53 1    
    55   51   52 1    
    56   51   54 1    
    57   54   56 am   BACKBONE|DICT|INTERRES
    58   54   55 1    
    59   56   57 2    
    60   56   58 1    
    61   58   59 1    
    62   58   60 1    
    63   60   63 1    
    64   60   61 1    
    65   60   62 1    
    66   63   64 ar   
    67   63   72 ar   
    68   64   66 ar   
    69   64   65 1    
    70   66   67 1    
    71   66   68 ar   
    72   68   69 1    
    73   68   70 ar   
    74   70   71 1    
    75   70   72 ar   
    76   73   74 1    
    77   73   77 1    
    78   73   75 1    
    79   73   76 1    
    80   77   82 2    
    81   77   78 1    
    82   78   81 1    
    83   78   80 1    
    84   78   79 1    
    85   83   86 1    
    86   83   87 1    
    87   83   84 1    
    88   83   85 1    
    89   87   88 1    
    90   87   92 2    
    91   88   91 1    
    92   88   89 1    
    93   88   90 1    
@<TRIPOS>SUBSTRUCTURE
     1 UNK         1 GROUP             0       ****    0 ROOT    
