@<TRIPOS>MOLECULE
Cpd5-1
72   75    1
SMALL
USER_CHARGES


@<TRIPOS>ATOM
      1 N1          2.8075    4.3936    6.8643 N.am      1 ****       -0.5819 
      2 O2          1.9245    1.2791    5.8289 O.2       1 ****       -0.4360 
      3 C3          3.9660    5.3179    2.3479 C.ar      1 ****       -0.1736 
      4 N4          5.3649    6.3110    8.5777 N.am      1 ****       -0.4289 
      5 O5          6.9974    7.6432    7.7529 O.2       1 ****       -0.5099 
      6 C6          4.5222    6.4892    2.8684 C.ar      1 ****       -0.0789 
      7 N7          6.4020    6.4833   11.2003 N.am      1 ****       -0.3763 
      8 O8          3.2062    4.9586    9.0153 O.2       1 ****       -0.5158 
      9 C9          3.9620    4.1696    3.1427 C.ar      1 ****        0.0068 
     10 O10         5.0780    8.3384   11.6450 O.2       1 ****       -0.5744 
     11 C11         5.0532    6.4814    4.1604 C.ar      1 ****       -0.1628 
     12 O12         7.6279    1.1488    8.7972 O.3       1 ****       -0.3030 
     13 C13         8.6551    4.6313    8.4025 C.ar      1 ****       -0.1185 
     14 C14         8.5238    4.0986   10.7617 C.ar      1 ****       -0.1185 
     15 C15         4.0330    1.8766    8.6836 C.ar      1 ****       -0.0703 
     16 C16         4.7353    0.9566    6.5578 C.ar      1 ****       -0.0703 
     17 C17         8.3992    3.3019    8.0881 C.ar      1 ****       -0.1314 
     18 C18         8.2744    2.7647   10.4436 C.ar      1 ****       -0.1314 
     19 C19         5.3099    1.6698    9.1896 C.ar      1 ****       -0.1479 
     20 C20         6.0176    0.7577    7.0696 C.ar      1 ****       -0.1479 
     21 C21         8.6303    6.5382   10.0561 C.3       1 ****       -0.1110 
     22 C22         1.8230    3.3126    7.0942 C.3       1 ****        0.0042 
     23 C23         5.5592    5.2246    6.3118 C.3       1 ****       -0.0980 
     24 C24         8.6426    5.0429    9.7373 C.ar      1 ****       -0.0925 
     25 C25         5.0074    5.2932    4.8944 C.ar      1 ****        0.0250 
     26 C26         3.7559    1.5810    7.3433 C.ar      1 ****       -0.1968 
     27 C27         8.1432    2.3851    9.1082 C.ar      1 ****        0.1208 
     28 C28         6.3192    1.1641    8.3675 C.ar      1 ****        0.1380 
     29 C29         2.4213    1.9225    6.7553 C.2       1 ****        0.5399 
     30 C30         6.4754    7.0524    8.6990 C.2       1 ****        0.5018 
     31 C31         3.4663    5.0670    7.8146 C.2       1 ****        0.4997 
     32 C32         5.4101    7.1764   11.8620 C.2       1 ****        0.6108 
     33 C33         7.1719    7.0968   10.0937 C.3       1 ****        0.0376 
     34 C34         4.6502    5.9483    7.3581 C.3       1 ****        0.0346 
     35 H35         7.2743    8.1641   10.3083 H         1 ****        0.0871 
     36 H36         4.2535    6.8760    6.9415 H         1 ****        0.0942 
     37 H37         3.5518    5.3010    1.3499 H         1 ****        0.1486 
     38 H38         4.5439    7.3932    2.2767 H         1 ****        0.1420 
     39 H39         3.5445    3.2417    2.7757 H         1 ****        0.1638 
     40 H40         5.4909    7.3755    4.5827 H         1 ****        0.1472 
     41 H41         8.7633    5.3540    7.6054 H         1 ****        0.1361 
     42 H42         8.5471    4.4034   11.7982 H         1 ****        0.1361 
     43 H43         3.2918    2.3271    9.3301 H         1 ****        0.1456 
     44 H44         4.5309    0.6878    5.5295 H         1 ****        0.1456 
     45 H45         8.3070    2.9955    7.0571 H         1 ****        0.1431 
     46 H46         8.0956    2.0396   11.2235 H         1 ****        0.1431 
     47 H47         5.5388    1.9656   10.2018 H         1 ****        0.1463 
     48 H48         6.7973    0.3486    6.4451 H         1 ****        0.1463 
     49 H49         9.1321    6.7156   11.0087 H         1 ****        0.0930 
     50 H50         9.2266    7.0733    9.3134 H         1 ****        0.0930 
     51 H51         0.9363    3.4825    6.4822 H         1 ****        0.1060 
     52 H52         1.4616    3.2863    8.1238 H         1 ****        0.1060 
     53 H53         5.7525    4.1909    6.6099 H         1 ****        0.0942 
     54 H54         6.5487    5.6772    6.2673 H         1 ****        0.0942 
     55 H55         3.1362    4.5235    5.9089 H         1 ****        0.3239 
     56 H56         4.9425    5.8936    9.3987 H         1 ****        0.2986 
     57 H57         6.5341    5.5109   11.4232 H         1 ****        0.2769 
     58 O58         4.8472    6.3474   12.7606 O.3       1 ****       -0.3380 
     59 C59         3.7012    6.6645   13.5591 C.3       1 ****        0.3047 
     60 C60         3.4625    5.3908   14.3851 C.3       1 ****       -0.2327 
     61 H61         2.6025    5.4961   15.0466 H         1 ****        0.0753 
     62 H62         3.2797    4.5297   13.7413 H         1 ****        0.0753 
     63 H63         4.3279    5.1505   15.0037 H         1 ****        0.0753 
     64 C64         3.9780    7.8424   14.5165 C.3       1 ****       -0.2327 
     65 H65         4.8816    7.6703   15.1012 H         1 ****        0.0753 
     66 H66         4.1168    8.7797   13.9779 H         1 ****        0.0753 
     67 H67         3.1538    7.9902   15.2142 H         1 ****        0.0753 
     68 C68         2.4612    6.9373   12.6816 C.3       1 ****       -0.2327 
     69 H69         2.5686    7.8550   12.1033 H         1 ****        0.0753 
     70 H70         2.2979    6.1283   11.9685 H         1 ****        0.0753 
     71 H71         1.5587    7.0372   13.2843 H         1 ****        0.0753 
     72 N72         4.4728    4.1460    4.4004 N.ar      1 ****       -0.2997 
@<TRIPOS>BOND
     1    1   55 1    
     2    1   22 1    
     3    1   31 am   BACKBONE|DICT|INTERRES
     4    2   29 2    
     5    3    6 ar   
     6    3    9 ar   
     7    3   37 1    
     8    4   56 1    
     9    4   30 am   BACKBONE|DICT|INTERRES
    10    4   34 1    
    11    5   30 2    
    12    6   11 ar   
    13    6   38 1    
    14    7   57 1    
    15    7   32 am   BACKBONE|DICT|INTERRES
    16    7   33 1    
    17    8   31 2    
    18    9   39 1    
    19    9   72 ar   
    20   10   32 2    
    21   11   25 ar   
    22   11   40 1    
    23   12   27 1    
    24   12   28 1    
    25   13   17 ar   
    26   13   24 ar   
    27   13   41 1    
    28   14   18 ar   
    29   14   24 ar   
    30   14   42 1    
    31   15   19 ar   
    32   15   26 ar   
    33   15   43 1    
    34   16   20 ar   
    35   16   26 ar   
    36   16   44 1    
    37   17   27 ar   
    38   17   45 1    
    39   18   27 ar   
    40   18   46 1    
    41   19   28 ar   
    42   19   47 1    
    43   20   28 ar   
    44   20   48 1    
    45   21   24 1    
    46   21   33 1    
    47   21   49 1    
    48   21   50 1    
    49   22   29 1    
    50   22   51 1    
    51   22   52 1    
    52   23   25 1    
    53   23   34 1    
    54   23   53 1    
    55   23   54 1    
    56   25   72 ar   
    57   26   29 1    
    58   30   33 1    
    59   31   34 1    
    60   32   58 1    
    61   33   35 1    
    62   34   36 1    
    63   58   59 1    
    64   59   60 1    
    65   59   64 1    
    66   59   68 1    
    67   60   61 1    
    68   60   62 1    
    69   60   63 1    
    70   64   65 1    
    71   64   66 1    
    72   64   67 1    
    73   68   69 1    
    74   68   70 1    
    75   68   71 1    
@<TRIPOS>SUBSTRUCTURE
     1 ****        1 GROUP             0       ****    0 ROOT    
@<TRIPOS>MOLECULE
Cpd5-2
72   75    1
SMALL
USER_CHARGES


@<TRIPOS>ATOM
      1 N1          3.1548    4.3485    6.2966 N.am      1 ****       -0.5819 
      2 O2          1.4025    1.5157    7.7440 O.2       1 ****       -0.4360 
      3 C3          4.7081    5.6714    2.0104 C.ar      1 ****       -0.1736 
      4 N4          5.3614    6.2644    8.4295 N.am      1 ****       -0.4289 
      5 O5          7.0507    7.6843    7.9257 O.2       1 ****       -0.5099 
      6 C6          5.0888    6.8409    2.6730 C.ar      1 ****       -0.0789 
      7 N7          6.0329    6.2788   11.1752 N.am      1 ****       -0.3763 
      8 O8          3.1164    4.9618    8.4700 O.2       1 ****       -0.5158 
      9 C9          4.7268    4.4668    2.7167 C.ar      1 ****        0.0068 
     10 O10         4.6472    8.0968   11.5860 O.2       1 ****       -0.5744 
     11 C11         5.4742    6.7750    4.0137 C.ar      1 ****       -0.1628 
     12 O12         7.7559    1.1481    8.5481 O.3       1 ****       -0.3030 
     13 C13         8.7407    4.6649    8.5828 C.ar      1 ****       -0.1185 
     14 C14         8.2212    3.9581   10.8402 C.ar      1 ****       -0.1185 
     15 C15         4.1047    1.1579    8.7577 C.ar      1 ****       -0.0703 
     16 C16         4.7809    1.7610    6.5133 C.ar      1 ****       -0.0703 
     17 C17         8.5838    3.3570    8.1367 C.ar      1 ****       -0.1314 
     18 C18         8.0606    2.6497   10.3896 C.ar      1 ****       -0.1314 
     19 C19         5.4341    0.9111    9.0892 C.ar      1 ****       -0.1479 
     20 C20         6.1081    1.5072    6.8478 C.ar      1 ****       -0.1479 
     21 C21         8.3938    6.4424   10.3450 C.3       1 ****       -0.1110 
     22 C22         2.0833    3.3202    6.3250 C.3       1 ****        0.0042 
     23 C23         5.8660    5.3993    6.1149 C.3       1 ****       -0.0980 
     24 C24         8.4908    4.9766    9.9218 C.ar      1 ****       -0.0925 
     25 C25         5.4609    5.5324    4.6530 C.ar      1 ****        0.0250 
     26 C26         3.7801    1.6594    7.4901 C.ar      1 ****       -0.1968 
     27 C27         8.1768    2.3649    9.0287 C.ar      1 ****        0.1208 
     28 C28         6.4396    1.1450    8.1524 C.ar      1 ****        0.1380 
     29 C29         2.3648    2.0670    7.2057 C.2       1 ****        0.5399 
     30 C30         6.4259    7.0146    8.7488 C.2       1 ****        0.5018 
     31 C31         3.6033    5.0571    7.3425 C.2       1 ****        0.4997 
     32 C32         4.9584    6.9209   11.7545 C.2       1 ****        0.6108 
     33 C33         6.9302    6.9732   10.2233 C.3       1 ****        0.0376 
     34 C34         4.8118    5.9922    7.1054 C.3       1 ****        0.0346 
     35 H35         6.9805    8.0251   10.5182 H         1 ****        0.0871 
     36 H36         4.4348    6.9436    6.7264 H         1 ****        0.0942 
     37 H37         4.4114    5.6993    0.9716 H         1 ****        0.1486 
     38 H38         5.0896    7.7879    2.1523 H         1 ****        0.1420 
     39 H39         4.4480    3.5403    2.2335 H         1 ****        0.1638 
     40 H40         5.7787    7.6670    4.5439 H         1 ****        0.1472 
     41 H41         8.9651    5.4465    7.8700 H         1 ****        0.1361 
     42 H42         8.0594    4.1851   11.8841 H         1 ****        0.1361 
     43 H43         3.3420    1.0318    9.5153 H         1 ****        0.1456 
     44 H44         4.5561    2.0971    5.5106 H         1 ****        0.1456 
     45 H45         8.6879    3.1261    7.0878 H         1 ****        0.1431 
     46 H46         7.7661    1.8692   11.0745 H         1 ****        0.1431 
     47 H47         5.6972    0.6109   10.0918 H         1 ****        0.1463 
     48 H48         6.8903    1.6641    6.1207 H         1 ****        0.1463 
     49 H49         8.7581    6.5543   11.3675 H         1 ****        0.0930 
     50 H50         9.0695    7.0432    9.7319 H         1 ****        0.0930 
     51 H51         1.8657    2.9780    5.3137 H         1 ****        0.1060 
     52 H52         1.1720    3.7913    6.7000 H         1 ****        0.1060 
     53 H53         6.1006    4.3652    6.3715 H         1 ****        0.0942 
     54 H54         6.8217    5.9140    6.2027 H         1 ****        0.0942 
     55 H55         3.6393    4.5011    5.4141 H         1 ****        0.3239 
     56 H56         4.8426    5.7864    9.1574 H         1 ****        0.2986 
     57 H57         6.1357    5.2896   11.3302 H         1 ****        0.2769 
     58 O58         4.2934    6.0275   12.5095 O.3       1 ****       -0.3380 
     59 C59         3.0529    6.2843   13.1779 C.3       1 ****        0.3047 
     60 C60         3.1976    7.3833   14.2512 C.3       1 ****       -0.2327 
     61 H61         2.2906    7.4786   14.8479 H         1 ****        0.0753 
     62 H62         4.0210    7.1640   14.9308 H         1 ****        0.0753 
     63 H63         3.3968    8.3591   13.8086 H         1 ****        0.0753 
     64 C64         1.9315    6.6275   12.1747 C.3       1 ****       -0.2327 
     65 H65         2.1038    7.5872   11.6874 H         1 ****        0.0753 
     66 H66         1.8657    5.8768   11.3861 H         1 ****        0.0753 
     67 H67         0.9594    6.6819   12.6644 H         1 ****        0.0753 
     68 C68         2.7220    4.9501   13.8648 C.3       1 ****       -0.2327 
     69 H69         2.6283    4.1430   13.1373 H         1 ****        0.0753 
     70 H70         3.5044    4.6599   14.5667 H         1 ****        0.0753 
     71 H71         1.7847    5.0050   14.4188 H         1 ****        0.0753 
     72 N72         5.0936    4.3860    4.0220 N.ar      1 ****       -0.2997 
@<TRIPOS>BOND
     1    1   55 1    
     2    1   22 1    
     3    1   31 am   BACKBONE|DICT|INTERRES
     4    2   29 2    
     5    3    6 ar   
     6    3    9 ar   
     7    3   37 1    
     8    4   56 1    
     9    4   30 am   BACKBONE|DICT|INTERRES
    10    4   34 1    
    11    5   30 2    
    12    6   11 ar   
    13    6   38 1    
    14    7   57 1    
    15    7   32 am   BACKBONE|DICT|INTERRES
    16    7   33 1    
    17    8   31 2    
    18    9   39 1    
    19    9   72 ar   
    20   10   32 2    
    21   11   25 ar   
    22   11   40 1    
    23   12   27 1    
    24   12   28 1    
    25   13   17 ar   
    26   13   24 ar   
    27   13   41 1    
    28   14   18 ar   
    29   14   24 ar   
    30   14   42 1    
    31   15   19 ar   
    32   15   26 ar   
    33   15   43 1    
    34   16   20 ar   
    35   16   26 ar   
    36   16   44 1    
    37   17   27 ar   
    38   17   45 1    
    39   18   27 ar   
    40   18   46 1    
    41   19   28 ar   
    42   19   47 1    
    43   20   28 ar   
    44   20   48 1    
    45   21   24 1    
    46   21   33 1    
    47   21   49 1    
    48   21   50 1    
    49   22   29 1    
    50   22   51 1    
    51   22   52 1    
    52   23   25 1    
    53   23   34 1    
    54   23   53 1    
    55   23   54 1    
    56   25   72 ar   
    57   26   29 1    
    58   30   33 1    
    59   31   34 1    
    60   32   58 1    
    61   33   35 1    
    62   34   36 1    
    63   58   59 1    
    64   59   60 1    
    65   59   64 1    
    66   59   68 1    
    67   60   61 1    
    68   60   62 1    
    69   60   63 1    
    70   64   65 1    
    71   64   66 1    
    72   64   67 1    
    73   68   69 1    
    74   68   70 1    
    75   68   71 1    
@<TRIPOS>SUBSTRUCTURE
     1 ****        1 GROUP             0       ****    0 ROOT    
@<TRIPOS>MOLECULE
Cpd5-3
72   75    1
SMALL
USER_CHARGES


@<TRIPOS>ATOM
      1 N1          2.8226    4.3879    6.8341 N.am      1 ****       -0.5819 
      2 O2          1.9215    1.2571    5.8409 O.2       1 ****       -0.4360 
      3 C3          4.0204    5.4448    2.3242 C.ar      1 ****       -0.1736 
      4 N4          5.3708    6.2759    8.5849 N.am      1 ****       -0.4289 
      5 O5          6.9749    7.6500    7.7786 O.2       1 ****       -0.5099 
      6 C6          4.6023    6.5892    2.8751 C.ar      1 ****       -0.0789 
      7 N7          6.4177    6.4345   11.2205 N.am      1 ****       -0.3763 
      8 O8          3.1393    5.0192    8.9789 O.2       1 ****       -0.5158 
      9 C9          3.9736    4.2814    3.0957 C.ar      1 ****        0.0068 
     10 O10         4.7738    6.4546   12.8144 O.2       1 ****       -0.5744 
     11 C11         5.1160    6.5408    4.1731 C.ar      1 ****       -0.1628 
     12 O12         7.6285    1.1508    8.8029 O.3       1 ****       -0.3030 
     13 C13         8.6600    4.6304    8.3997 C.ar      1 ****       -0.1185 
     14 C14         8.5572    4.0941   10.7597 C.ar      1 ****       -0.1185 
     15 C15         4.7251    0.9237    6.5806 C.ar      1 ****       -0.0703 
     16 C16         4.0399    1.9180    8.6784 C.ar      1 ****       -0.0703 
     17 C17         8.4010    3.3014    8.0867 C.ar      1 ****       -0.1314 
     18 C18         8.3034    2.7608   10.4428 C.ar      1 ****       -0.1314 
     19 C19         6.0069    0.7274    7.0943 C.ar      1 ****       -0.1479 
     20 C20         5.3167    1.7145    9.1862 C.ar      1 ****       -0.1479 
     21 C21         8.6332    6.5352   10.0558 C.3       1 ****       -0.1110 
     22 C22         1.8269    3.3168    7.0627 C.3       1 ****        0.0042 
     23 C23         5.5606    5.2273    6.3038 C.3       1 ****       -0.0980 
     24 C24         8.6594    5.0405    9.7351 C.ar      1 ****       -0.0925 
     25 C25         5.0270    5.3401    4.8825 C.ar      1 ****        0.0250 
     26 C26         3.7544    1.5827    7.3490 C.ar      1 ****       -0.1968 
     27 C27         8.1542    2.3840    9.1085 C.ar      1 ****        0.1208 
     28 C28         6.3181    1.1717    8.3773 C.ar      1 ****        0.1380 
     29 C29         2.4213    1.9183    6.7531 C.2       1 ****        0.5399 
     30 C30         6.4701    7.0312    8.7157 C.2       1 ****        0.5018 
     31 C31         3.4477    5.0879    7.7879 C.2       1 ****        0.4997 
     32 C32         5.3405    7.0054   11.8786 C.2       1 ****        0.6108 
     33 C33         7.1675    7.0757   10.1103 C.3       1 ****        0.0376 
     34 C34         4.6557    5.9472    7.3558 C.3       1 ****        0.0346 
     35 H35         7.2568    8.1406   10.3374 H         1 ****        0.0871 
     36 H36         4.2808    6.8894    6.9517 H         1 ****        0.0942 
     37 H37         3.6190    5.4591    1.3210 H         1 ****        0.1486 
     38 H38         4.6572    7.5036    2.3019 H         1 ****        0.1420 
     39 H39         3.5358    3.3732    2.7041 H         1 ****        0.1638 
     40 H40         5.5736    7.4134    4.6187 H         1 ****        0.1472 
     41 H41         8.7576    5.3542    7.6024 H         1 ****        0.1361 
     42 H42         8.5914    4.3960   11.7966 H         1 ****        0.1361 
     43 H43         4.5141    0.6229    5.5625 H         1 ****        0.1456 
     44 H44         3.3052    2.3949    9.3137 H         1 ****        0.1456 
     45 H45         8.2963    2.9962    7.0564 H         1 ****        0.1431 
     46 H46         8.1319    2.0353   11.2238 H         1 ****        0.1431 
     47 H47         6.7797    0.2891    6.4810 H         1 ****        0.1463 
     48 H48         5.5511    2.0389   10.1885 H         1 ****        0.1463 
     49 H49         9.1432    6.7160   11.0036 H         1 ****        0.0930 
     50 H50         9.2163    7.0784    9.3083 H         1 ****        0.0930 
     51 H51         0.9515    3.4846    6.4341 H         1 ****        0.1060 
     52 H52         1.4499    3.3052    8.0871 H         1 ****        0.1060 
     53 H53         5.7294    4.1835    6.5807 H         1 ****        0.0942 
     54 H54         6.5597    5.6604    6.2818 H         1 ****        0.0942 
     55 H55         3.1796    4.4948    5.8856 H         1 ****        0.3239 
     56 H56         4.9572    5.8327    9.3975 H         1 ****        0.2986 
     57 H57         6.6850    5.5092   11.5125 H         1 ****        0.2769 
     58 O58         4.9819    8.1938   11.3336 O.3       1 ****       -0.3380 
     59 C59         3.7983    8.9243   11.6676 C.3       1 ****        0.3047 
     60 C60         3.8190    9.4031   13.1334 C.3       1 ****       -0.2327 
     61 H61         2.9851   10.0721   13.3452 H         1 ****        0.0753 
     62 H62         3.7511    8.5703   13.8332 H         1 ****        0.0753 
     63 H63         4.7409    9.9389   13.3591 H         1 ****        0.0753 
     64 C64         3.8471   10.1437   10.7340 C.3       1 ****       -0.2327 
     65 H65         4.7457   10.7378   10.9040 H         1 ****        0.0753 
     66 H66         3.8587    9.8401    9.6864 H         1 ****        0.0753 
     67 H67         2.9863   10.7966   10.8796 H         1 ****        0.0753 
     68 C68         2.5255    8.1064   11.3624 C.3       1 ****       -0.2327 
     69 H69         2.5400    7.7204   10.3424 H         1 ****        0.0753 
     70 H70         2.4278    7.2468   12.0254 H         1 ****        0.0753 
     71 H71         1.6252    8.7093   11.4777 H         1 ****        0.0753 
     72 N72         4.4665    4.2184    4.3592 N.ar      1 ****       -0.2997 
@<TRIPOS>BOND
     1    1   55 1    
     2    1   22 1    
     3    1   31 am   BACKBONE|DICT|INTERRES
     4    2   29 2    
     5    3    6 ar   
     6    3    9 ar   
     7    3   37 1    
     8    4   56 1    
     9    4   30 am   BACKBONE|DICT|INTERRES
    10    4   34 1    
    11    5   30 2    
    12    6   11 ar   
    13    6   38 1    
    14    7   57 1    
    15    7   32 am   BACKBONE|DICT|INTERRES
    16    7   33 1    
    17    8   31 2    
    18    9   39 1    
    19    9   72 ar   
    20   10   32 2    
    21   11   25 ar   
    22   11   40 1    
    23   12   27 1    
    24   12   28 1    
    25   13   17 ar   
    26   13   24 ar   
    27   13   41 1    
    28   14   18 ar   
    29   14   24 ar   
    30   14   42 1    
    31   15   19 ar   
    32   15   26 ar   
    33   15   43 1    
    34   16   20 ar   
    35   16   26 ar   
    36   16   44 1    
    37   17   27 ar   
    38   17   45 1    
    39   18   27 ar   
    40   18   46 1    
    41   19   28 ar   
    42   19   47 1    
    43   20   28 ar   
    44   20   48 1    
    45   21   24 1    
    46   21   33 1    
    47   21   49 1    
    48   21   50 1    
    49   22   29 1    
    50   22   51 1    
    51   22   52 1    
    52   23   25 1    
    53   23   34 1    
    54   23   53 1    
    55   23   54 1    
    56   25   72 ar   
    57   26   29 1    
    58   30   33 1    
    59   31   34 1    
    60   32   58 1    
    61   33   35 1    
    62   34   36 1    
    63   58   59 1    
    64   59   60 1    
    65   59   64 1    
    66   59   68 1    
    67   60   61 1    
    68   60   62 1    
    69   60   63 1    
    70   64   65 1    
    71   64   66 1    
    72   64   67 1    
    73   68   69 1    
    74   68   70 1    
    75   68   71 1    
@<TRIPOS>SUBSTRUCTURE
     1 ****        1 GROUP             0       ****    0 ROOT    
@<TRIPOS>MOLECULE
Cpd5-4
72   75    1
SMALL
USER_CHARGES


@<TRIPOS>ATOM
      1 N1          2.8166    4.3911    6.8683 N.am      1 ****       -0.5819 
      2 O2          1.9205    1.2834    5.8281 O.2       1 ****       -0.4360 
      3 C3          4.0649    5.1794    2.3638 C.ar      1 ****       -0.1736 
      4 N4          5.3717    6.3059    8.5915 N.am      1 ****       -0.4289 
      5 O5          7.0085    7.6163    7.7550 O.2       1 ****       -0.5099 
      6 C6          4.6197    6.3595    2.8654 C.ar      1 ****       -0.0789 
      7 N7          6.3876    6.5187   11.1999 N.am      1 ****       -0.3763 
      8 O8          3.2294    4.9449    9.0215 O.2       1 ****       -0.5158 
      9 C9          4.0456    4.0489    3.1837 C.ar      1 ****        0.0068 
     10 O10         7.4298    7.6947   12.9113 O.2       1 ****       -0.5744 
     11 C11         5.1338    6.3784    4.1641 C.ar      1 ****       -0.1628 
     12 O12         7.6227    1.1521    8.7981 O.3       1 ****       -0.3030 
     13 C13         8.6697    4.6280    8.3913 C.ar      1 ****       -0.1185 
     14 C14         8.4821    4.1189   10.7510 C.ar      1 ****       -0.1185 
     15 C15         4.0232    1.8558    8.6898 C.ar      1 ****       -0.0703 
     16 C16         4.7358    0.9710    6.5521 C.ar      1 ****       -0.0703 
     17 C17         8.4154    3.2961    8.0842 C.ar      1 ****       -0.1314 
     18 C18         8.2356    2.7828   10.4412 C.ar      1 ****       -0.1314 
     19 C19         5.3007    1.6506    9.1954 C.ar      1 ****       -0.1479 
     20 C20         6.0183    0.7741    7.0633 C.ar      1 ****       -0.1479 
     21 C21         8.6279    6.5516   10.0301 C.3       1 ****       -0.1110 
     22 C22         1.8260    3.3153    7.0975 C.3       1 ****        0.0042 
     23 C23         5.6020    5.1688    6.3508 C.3       1 ****       -0.0980 
     24 C24         8.6289    5.0528    9.7215 C.ar      1 ****       -0.0925 
     25 C25         5.0725    5.2072    4.9238 C.ar      1 ****        0.0250 
     26 C26         3.7513    1.5782    7.3445 C.ar      1 ****       -0.1968 
     27 C27         8.1338    2.3903    9.1072 C.ar      1 ****        0.1208 
     28 C28         6.3146    1.1639    8.3674 C.ar      1 ****        0.1380 
     29 C29         2.4177    1.9227    6.7572 C.2       1 ****        0.5399 
     30 C30         6.4869    7.0424    8.7114 C.2       1 ****        0.5018 
     31 C31         3.4857    5.0527    7.8196 C.2       1 ****        0.4997 
     32 C32         6.6334    6.8472   12.5157 C.2       1 ****        0.6108 
     33 C33         7.1739    7.1407   10.1083 C.3       1 ****        0.0376 
     34 C34         4.6794    5.9209    7.3647 C.3       1 ****        0.0346 
     35 H35         7.2380    8.2143   10.3037 H         1 ****        0.0871 
     36 H36         4.2941    6.8401    6.9197 H         1 ****        0.0942 
     37 H37         3.6638    5.1418    1.3611 H         1 ****        0.1486 
     38 H38         4.6535    7.2498    2.2538 H         1 ****        0.1420 
     39 H39         3.6291    3.1148    2.8318 H         1 ****        0.1638 
     40 H40         5.5701    7.2799    4.5717 H         1 ****        0.1472 
     41 H41         8.8018    5.3427    7.5908 H         1 ****        0.1361 
     42 H42         8.4777    4.4375   11.7837 H         1 ****        0.1361 
     43 H43         3.2769    2.2918    9.3406 H         1 ****        0.1456 
     44 H44         4.5355    0.7169    5.5192 H         1 ****        0.1456 
     45 H45         8.3465    2.9793    7.0543 H         1 ****        0.1431 
     46 H46         8.0353    2.0679   11.2249 H         1 ****        0.1431 
     47 H47         5.5262    1.9318   10.2125 H         1 ****        0.1463 
     48 H48         6.8022    0.3800    6.4343 H         1 ****        0.1463 
     49 H49         9.1600    6.7281   10.9665 H         1 ****        0.0930 
     50 H50         9.2139    7.0798    9.2747 H         1 ****        0.0930 
     51 H51         0.9399    3.4897    6.4858 H         1 ****        0.1060 
     52 H52         1.4646    3.2896    8.1271 H         1 ****        0.1060 
     53 H53         5.7848    4.1410    6.6748 H         1 ****        0.0942 
     54 H54         6.5942    5.6152    6.3109 H         1 ****        0.0942 
     55 H55         3.1479    4.5160    5.9134 H         1 ****        0.3239 
     56 H56         4.9174    5.9070    9.4030 H         1 ****        0.2986 
     57 H57         5.8649    5.6760   11.0337 H         1 ****        0.2769 
     58 O58         5.8598    6.0668   13.2943 O.3       1 ****       -0.3380 
     59 C59         5.8181    6.1230   14.7253 C.3       1 ****        0.3047 
     60 C60         4.7798    5.0557   15.1056 C.3       1 ****       -0.2327 
     61 H61         4.6464    4.9917   16.1857 H         1 ****        0.0753 
     62 H62         3.8064    5.2744   14.6653 H         1 ****        0.0753 
     63 H63         5.0768    4.0682   14.7508 H         1 ****        0.0753 
     64 C64         7.1790    5.7501   15.3494 C.3       1 ****       -0.2327 
     65 H65         7.5416    4.7972   14.9641 H         1 ****        0.0753 
     66 H66         7.9428    6.4969   15.1325 H         1 ****        0.0753 
     67 H67         7.1095    5.6649   16.4339 H         1 ****        0.0753 
     68 C68         5.3335    7.4991   15.2284 C.3       1 ****       -0.2327 
     69 H69         6.0540    8.2874   15.0103 H         1 ****        0.0753 
     70 H70         4.3934    7.7825   14.7552 H         1 ****        0.0753 
     71 H71         5.1747    7.4958   16.3067 H         1 ****        0.0753 
     72 N72         4.5396    4.0515    4.4483 N.ar      1 ****       -0.2997 
@<TRIPOS>BOND
     1    1   55 1    
     2    1   22 1    
     3    1   31 am   BACKBONE|DICT|INTERRES
     4    2   29 2    
     5    3    6 ar   
     6    3    9 ar   
     7    3   37 1    
     8    4   56 1    
     9    4   30 am   BACKBONE|DICT|INTERRES
    10    4   34 1    
    11    5   30 2    
    12    6   11 ar   
    13    6   38 1    
    14    7   57 1    
    15    7   32 am   BACKBONE|DICT|INTERRES
    16    7   33 1    
    17    8   31 2    
    18    9   39 1    
    19    9   72 ar   
    20   10   32 2    
    21   11   25 ar   
    22   11   40 1    
    23   12   27 1    
    24   12   28 1    
    25   13   17 ar   
    26   13   24 ar   
    27   13   41 1    
    28   14   18 ar   
    29   14   24 ar   
    30   14   42 1    
    31   15   19 ar   
    32   15   26 ar   
    33   15   43 1    
    34   16   20 ar   
    35   16   26 ar   
    36   16   44 1    
    37   17   27 ar   
    38   17   45 1    
    39   18   27 ar   
    40   18   46 1    
    41   19   28 ar   
    42   19   47 1    
    43   20   28 ar   
    44   20   48 1    
    45   21   24 1    
    46   21   33 1    
    47   21   49 1    
    48   21   50 1    
    49   22   29 1    
    50   22   51 1    
    51   22   52 1    
    52   23   25 1    
    53   23   34 1    
    54   23   53 1    
    55   23   54 1    
    56   25   72 ar   
    57   26   29 1    
    58   30   33 1    
    59   31   34 1    
    60   32   58 1    
    61   33   35 1    
    62   34   36 1    
    63   58   59 1    
    64   59   60 1    
    65   59   64 1    
    66   59   68 1    
    67   60   61 1    
    68   60   62 1    
    69   60   63 1    
    70   64   65 1    
    71   64   66 1    
    72   64   67 1    
    73   68   69 1    
    74   68   70 1    
    75   68   71 1    
@<TRIPOS>SUBSTRUCTURE
     1 ****        1 GROUP             0       ****    0 ROOT    
@<TRIPOS>MOLECULE
Cpd5-5
72   75    1
SMALL
USER_CHARGES


@<TRIPOS>ATOM
      1 N1          3.1720    4.3434    6.2931 N.am      1 ****       -0.5819 
      2 O2          1.3984    1.5265    7.7418 O.2       1 ****       -0.4360 
      3 C3          4.8558    5.6401    2.0187 C.ar      1 ****       -0.1736 
      4 N4          5.3616    6.2579    8.4462 N.am      1 ****       -0.4289 
      5 O5          7.0540    7.6653    7.9417 O.2       1 ****       -0.5099 
      6 C6          5.2621    6.7996    2.6832 C.ar      1 ****       -0.0789 
      7 N7          6.0170    6.2828   11.1767 N.am      1 ****       -0.3763 
      8 O8          3.1289    4.9574    8.4679 O.2       1 ****       -0.5158 
      9 C9          4.8124    4.4408    2.7331 C.ar      1 ****        0.0068 
     10 O10         6.7806    7.3491   13.0947 O.2       1 ****       -0.5744 
     11 C11         5.6112    6.7297    4.0336 C.ar      1 ****       -0.1628 
     12 O12         7.7520    1.1484    8.5495 O.3       1 ****       -0.3030 
     13 C13         8.7398    4.6653    8.5681 C.ar      1 ****       -0.1185 
     14 C14         8.2044    3.9721   10.8250 C.ar      1 ****       -0.1185 
     15 C15         4.1011    1.1757    8.7663 C.ar      1 ****       -0.0703 
     16 C16         4.7765    1.7373    6.5104 C.ar      1 ****       -0.0703 
     17 C17         8.5839    3.3546    8.1287 C.ar      1 ****       -0.1314 
     18 C18         8.0479    2.6609   10.3827 C.ar      1 ****       -0.1314 
     19 C19         5.4300    0.9287    9.0995 C.ar      1 ****       -0.1479 
     20 C20         6.1031    1.4835    6.8470 C.ar      1 ****       -0.1479 
     21 C21         8.3903    6.4544   10.3229 C.3       1 ****       -0.1110 
     22 C22         2.0943    3.3209    6.3159 C.3       1 ****        0.0042 
     23 C23         5.9049    5.3563    6.1514 C.3       1 ****       -0.0980 
     24 C24         8.4808    4.9853    9.9034 C.ar      1 ****       -0.0925 
     25 C25         5.5372    5.4930    4.6803 C.ar      1 ****        0.0250 
     26 C26         3.7771    1.6569    7.4908 C.ar      1 ****       -0.1968 
     27 C27         8.1720    2.3678    9.0245 C.ar      1 ****        0.1208 
     28 C28         6.4349    1.1424    8.1570 C.ar      1 ****        0.1380 
     29 C29         2.3646    2.0684    7.2012 C.2       1 ****        0.5399 
     30 C30         6.4289    7.0039    8.7711 C.2       1 ****        0.5018 
     31 C31         3.6203    5.0481    7.3415 C.2       1 ****        0.4997 
     32 C32         6.0747    6.5144   12.5341 C.2       1 ****        0.6108 
     33 C33         6.9211    7.0048   10.2506 C.3       1 ****        0.0376 
     34 C34         4.8380    5.9725    7.1133 C.3       1 ****        0.0346 
     35 H35         6.9255    8.0607   10.5333 H         1 ****        0.0871 
     36 H36         4.4757    6.9210    6.7127 H         1 ****        0.0942 
     37 H37         4.5868    5.6709    0.9725 H         1 ****        0.1486 
     38 H38         5.3108    7.7421    2.1565 H         1 ****        0.1420 
     39 H39         4.5120    3.5216    2.2489 H         1 ****        0.1638 
     40 H40         5.9354    7.6137    4.5654 H         1 ****        0.1472 
     41 H41         8.9719    5.4426    7.8533 H         1 ****        0.1361 
     42 H42         8.0298    4.2088   11.8649 H         1 ****        0.1361 
     43 H43         3.3389    1.0658    9.5270 H         1 ****        0.1456 
     44 H44         4.5513    2.0581    5.5028 H         1 ****        0.1456 
     45 H45         8.6943    3.1169    7.0819 H         1 ****        0.1431 
     46 H46         7.7477    1.8863   11.0715 H         1 ****        0.1431 
     47 H47         5.6936    0.6445   10.1066 H         1 ****        0.1463 
     48 H48         6.8850    1.6254    6.1165 H         1 ****        0.1463 
     49 H49         8.7885    6.5663   11.3330 H         1 ****        0.0930 
     50 H50         9.0535    7.0543    9.6958 H         1 ****        0.0930 
     51 H51         1.8833    2.9771    5.3037 H         1 ****        0.1060 
     52 H52         1.1825    3.7970    6.6828 H         1 ****        0.1060 
     53 H53         6.1147    4.3188    6.4155 H         1 ****        0.0942 
     54 H54         6.8682    5.8525    6.2601 H         1 ****        0.0942 
     55 H55         3.6645    4.4895    5.4138 H         1 ****        0.3239 
     56 H56         4.8112    5.7953    9.1585 H         1 ****        0.2986 
     57 H57         5.5504    5.4425   10.8804 H         1 ****        0.2769 
     58 O58         5.2354    5.6546   13.1420 O.3       1 ****       -0.3380 
     59 C59         5.0115    5.5900   14.5554 C.3       1 ****        0.3047 
     60 C60         6.2954    5.1993   15.3169 C.3       1 ****       -0.2327 
     61 H61         6.0934    5.0223   16.3733 H         1 ****        0.0753 
     62 H62         6.7360    4.2909   14.9063 H         1 ****        0.0753 
     63 H63         7.0541    5.9798   15.2596 H         1 ****        0.0753 
     64 C64         4.4198    6.9068   15.1006 C.3       1 ****       -0.2327 
     65 H65         5.1343    7.7277   15.0416 H         1 ****        0.0753 
     66 H66         3.5382    7.2064   14.5340 H         1 ****        0.0753 
     67 H67         4.1256    6.8090   16.1454 H         1 ****        0.0753 
     68 C68         3.9716    4.4695   14.7124 C.3       1 ****       -0.2327 
     69 H69         3.0547    4.7002   14.1686 H         1 ****        0.0753 
     70 H70         4.3454    3.5228   14.3211 H         1 ****        0.0753 
     71 H71         3.7044    4.3122   15.7576 H         1 ****        0.0753 
     72 N72         5.1435    4.3562    4.0478 N.ar      1 ****       -0.2997 
@<TRIPOS>BOND
     1    1   55 1    
     2    1   22 1    
     3    1   31 am   BACKBONE|DICT|INTERRES
     4    2   29 2    
     5    3    6 ar   
     6    3    9 ar   
     7    3   37 1    
     8    4   56 1    
     9    4   30 am   BACKBONE|DICT|INTERRES
    10    4   34 1    
    11    5   30 2    
    12    6   11 ar   
    13    6   38 1    
    14    7   57 1    
    15    7   32 am   BACKBONE|DICT|INTERRES
    16    7   33 1    
    17    8   31 2    
    18    9   39 1    
    19    9   72 ar   
    20   10   32 2    
    21   11   25 ar   
    22   11   40 1    
    23   12   27 1    
    24   12   28 1    
    25   13   17 ar   
    26   13   24 ar   
    27   13   41 1    
    28   14   18 ar   
    29   14   24 ar   
    30   14   42 1    
    31   15   19 ar   
    32   15   26 ar   
    33   15   43 1    
    34   16   20 ar   
    35   16   26 ar   
    36   16   44 1    
    37   17   27 ar   
    38   17   45 1    
    39   18   27 ar   
    40   18   46 1    
    41   19   28 ar   
    42   19   47 1    
    43   20   28 ar   
    44   20   48 1    
    45   21   24 1    
    46   21   33 1    
    47   21   49 1    
    48   21   50 1    
    49   22   29 1    
    50   22   51 1    
    51   22   52 1    
    52   23   25 1    
    53   23   34 1    
    54   23   53 1    
    55   23   54 1    
    56   25   72 ar   
    57   26   29 1    
    58   30   33 1    
    59   31   34 1    
    60   32   58 1    
    61   33   35 1    
    62   34   36 1    
    63   58   59 1    
    64   59   60 1    
    65   59   64 1    
    66   59   68 1    
    67   60   61 1    
    68   60   62 1    
    69   60   63 1    
    70   64   65 1    
    71   64   66 1    
    72   64   67 1    
    73   68   69 1    
    74   68   70 1    
    75   68   71 1    
@<TRIPOS>SUBSTRUCTURE
     1 ****        1 GROUP             0       ****    0 ROOT    
@<TRIPOS>MOLECULE
Cpd5-6
72   75    1
SMALL
USER_CHARGES


@<TRIPOS>ATOM
      1 N1          3.1020    4.3766    6.3311 N.am      1 ****       -0.5819 
      2 O2          1.3944    1.4713    7.7240 O.2       1 ****       -0.4360 
      3 C3          4.6449    4.7740    2.0712 C.ar      1 ****       -0.1736 
      4 N4          5.3526    6.3167    8.4106 N.am      1 ****       -0.4289 
      5 O5          7.1003    7.6685    7.9062 O.2       1 ****       -0.5099 
      6 C6          5.6457    3.9573    2.6016 C.ar      1 ****       -0.0789 
      7 N7          6.0150    6.3037   11.1524 N.am      1 ****       -0.3763 
      8 O8          3.2720    4.8209    8.5389 O.2       1 ****       -0.5158 
      9 C9          4.0959    5.7688    2.8822 C.ar      1 ****        0.0068 
     10 O10         4.6425    8.1335   11.5555 O.2       1 ****       -0.5744 
     11 C11         6.0644    4.1532    3.9197 C.ar      1 ****       -0.1628 
     12 O12         7.7491    1.1617    8.5311 O.3       1 ****       -0.3030 
     13 C13         8.7614    4.6698    8.5950 C.ar      1 ****       -0.1185 
     14 C14         8.1776    3.9664   10.8376 C.ar      1 ****       -0.1185 
     15 C15         4.7692    1.8046    6.5102 C.ar      1 ****       -0.0703 
     16 C16         4.0980    1.1286    8.7356 C.ar      1 ****       -0.0703 
     17 C17         8.6075    3.3627    8.1448 C.ar      1 ****       -0.1314 
     18 C18         8.0171    2.6598   10.3822 C.ar      1 ****       -0.1314 
     19 C19         6.0988    1.5545    6.8399 C.ar      1 ****       -0.1479 
     20 C20         5.4297    0.8881    9.0626 C.ar      1 ****       -0.1479 
     21 C21         8.3860    6.4493   10.3502 C.3       1 ****       -0.1110 
     22 C22         2.0415    3.3361    6.3709 C.3       1 ****        0.0042 
     23 C23         5.8897    5.4068    6.1229 C.3       1 ****       -0.0980 
     24 C24         8.4795    4.9830    9.9273 C.ar      1 ****       -0.0925 
     25 C25         5.4617    5.1639    4.6747 C.ar      1 ****        0.0250 
     26 C26         3.7689    1.6620    7.4821 C.ar      1 ****       -0.1968 
     27 C27         8.1672    2.3742    9.0246 C.ar      1 ****        0.1208 
     28 C28         6.4330    1.1591    8.1341 C.ar      1 ****        0.1380 
     29 C29         2.3481    2.0589    7.2093 C.2       1 ****        0.5399 
     30 C30         6.4405    7.0334    8.7287 C.2       1 ****        0.5018 
     31 C31         3.6452    5.0116    7.3794 C.2       1 ****        0.4997 
     32 C32         4.9403    6.9539   11.7218 C.2       1 ****        0.6108 
     33 C33         6.9278    6.9906   10.2093 C.3       1 ****        0.0376 
     34 C34         4.8084    5.9941    7.0942 C.3       1 ****        0.0346 
     35 H35         6.9823    8.0426   10.5028 H         1 ****        0.0871 
     36 H36         4.3914    6.9149    6.6828 H         1 ****        0.0942 
     37 H37         4.3107    4.6452    1.0515 H         1 ****        0.1486 
     38 H38         6.0977    3.1859    1.9941 H         1 ****        0.1420 
     39 H39         3.3278    6.4306    2.5054 H         1 ****        0.1638 
     40 H40         6.8463    3.5374    4.3390 H         1 ****        0.1472 
     41 H41         9.0104    5.4505    7.8892 H         1 ****        0.1361 
     42 H42         7.9906    4.1941   11.8771 H         1 ****        0.1361 
     43 H43         4.5375    2.1673    5.5183 H         1 ****        0.1456 
     44 H44         3.3361    0.9728    9.4884 H         1 ****        0.1456 
     45 H45         8.7412    3.1300    7.0999 H         1 ****        0.1431 
     46 H46         7.6973    1.8822   11.0588 H         1 ****        0.1431 
     47 H47         6.8824    1.7338    6.1208 H         1 ****        0.1463 
     48 H48         5.6946    0.5625   10.0567 H         1 ****        0.1463 
     49 H49         8.7377    6.5580   11.3775 H         1 ****        0.0930 
     50 H50         9.0735    7.0464    9.7466 H         1 ****        0.0930 
     51 H51         1.7966    3.0144    5.3590 H         1 ****        0.1060 
     52 H52         1.1397    3.7931    6.7835 H         1 ****        0.1060 
     53 H53         6.2934    4.4871    6.5481 H         1 ****        0.0942 
     54 H54         6.7386    6.0852    6.0517 H         1 ****        0.0942 
     55 H55         3.4540    4.6665    5.4213 H         1 ****        0.3239 
     56 H56         4.8277    5.8508    9.1432 H         1 ****        0.2986 
     57 H57         6.0978    5.3108   11.2946 H         1 ****        0.2769 
     58 O58         4.2563    6.0623   12.4621 O.3       1 ****       -0.3380 
     59 C59         3.0067    6.3254   13.1103 C.3       1 ****        0.3047 
     60 C60         1.9056    6.6842   12.0901 C.3       1 ****       -0.2327 
     61 H61         0.9257    6.7435   12.5634 H         1 ****        0.0753 
     62 H62         2.0942    7.6453   11.6120 H         1 ****        0.0753 
     63 H63         1.8475    5.9385   11.2961 H         1 ****        0.0753 
     64 C64         2.6528    4.9897   13.7827 C.3       1 ****       -0.2327 
     65 H65         2.5658    4.1880   13.0483 H         1 ****        0.0753 
     66 H66         3.4202    4.6886   14.4966 H         1 ****        0.0753 
     67 H67         1.7061    5.0487   14.3201 H         1 ****        0.0753 
     68 C68         3.1424    7.4165   14.1927 C.3       1 ****       -0.2327 
     69 H69         3.9512    7.1849   14.8856 H         1 ****        0.0753 
     70 H70         3.3591    8.3930   13.7598 H         1 ****        0.0753 
     71 H71         2.2257    7.5171   14.7735 H         1 ****        0.0753 
     72 N72         4.4899    5.9682    4.1659 N.ar      1 ****       -0.2997 
@<TRIPOS>BOND
     1    1   55 1    
     2    1   22 1    
     3    1   31 am   BACKBONE|DICT|INTERRES
     4    2   29 2    
     5    3    6 ar   
     6    3    9 ar   
     7    3   37 1    
     8    4   56 1    
     9    4   30 am   BACKBONE|DICT|INTERRES
    10    4   34 1    
    11    5   30 2    
    12    6   11 ar   
    13    6   38 1    
    14    7   57 1    
    15    7   32 am   BACKBONE|DICT|INTERRES
    16    7   33 1    
    17    8   31 2    
    18    9   39 1    
    19    9   72 ar   
    20   10   32 2    
    21   11   25 ar   
    22   11   40 1    
    23   12   27 1    
    24   12   28 1    
    25   13   17 ar   
    26   13   24 ar   
    27   13   41 1    
    28   14   18 ar   
    29   14   24 ar   
    30   14   42 1    
    31   15   19 ar   
    32   15   26 ar   
    33   15   43 1    
    34   16   20 ar   
    35   16   26 ar   
    36   16   44 1    
    37   17   27 ar   
    38   17   45 1    
    39   18   27 ar   
    40   18   46 1    
    41   19   28 ar   
    42   19   47 1    
    43   20   28 ar   
    44   20   48 1    
    45   21   24 1    
    46   21   33 1    
    47   21   49 1    
    48   21   50 1    
    49   22   29 1    
    50   22   51 1    
    51   22   52 1    
    52   23   25 1    
    53   23   34 1    
    54   23   53 1    
    55   23   54 1    
    56   25   72 ar   
    57   26   29 1    
    58   30   33 1    
    59   31   34 1    
    60   32   58 1    
    61   33   35 1    
    62   34   36 1    
    63   58   59 1    
    64   59   60 1    
    65   59   64 1    
    66   59   68 1    
    67   60   61 1    
    68   60   62 1    
    69   60   63 1    
    70   64   65 1    
    71   64   66 1    
    72   64   67 1    
    73   68   69 1    
    74   68   70 1    
    75   68   71 1    
@<TRIPOS>SUBSTRUCTURE
     1 ****        1 GROUP             0       ****    0 ROOT    
@<TRIPOS>MOLECULE
Cpd5-7-MRC
72   75    1
SMALL
USER_CHARGES


@<TRIPOS>ATOM
      1 N1          3.1676    4.3381    6.2845 N.am      1 ****       -0.5819 
      2 O2          1.4001    1.5158    7.7301 O.2       1 ****       -0.4360 
      3 C3          4.7873    5.6865    2.0107 C.ar      1 ****       -0.1736 
      4 N4          5.3682    6.2258    8.4424 N.am      1 ****       -0.4289 
      5 O5          7.0199    7.6878    7.9428 O.2       1 ****       -0.5099 
      6 C6          5.1855    6.8439    2.6840 C.ar      1 ****       -0.0789 
      7 N7          6.0548    6.2483   11.2009 N.am      1 ****       -0.3763 
      8 O8          3.0645    5.0088    8.4379 O.2       1 ****       -0.5158 
      9 C9          4.7658    4.4791    2.7122 C.ar      1 ****        0.0068 
     10 O10         4.2316    6.1696   12.5846 O.2       1 ****       -0.5744 
     11 C11         5.5484    6.7637    4.0303 C.ar      1 ****       -0.1628 
     12 O12         7.7542    1.1492    8.5555 O.3       1 ****       -0.3030 
     13 C13         8.7391    4.6660    8.5752 C.ar      1 ****       -0.1185 
     14 C14         8.2541    3.9585   10.8400 C.ar      1 ****       -0.1185 
     15 C15         4.7795    1.7386    6.5123 C.ar      1 ****       -0.0703 
     16 C16         4.1025    1.1940    8.7718 C.ar      1 ****       -0.0703 
     17 C17         8.5771    3.3578    8.1317 C.ar      1 ****       -0.1314 
     18 C18         8.0884    2.6500   10.3920 C.ar      1 ****       -0.1314 
     19 C19         6.1056    1.4843    6.8511 C.ar      1 ****       -0.1479 
     20 C20         5.4310    0.9479    9.1074 C.ar      1 ****       -0.1479 
     21 C21         8.4008    6.4438   10.3387 C.3       1 ****       -0.1110 
     22 C22         2.0899    3.3167    6.3099 C.3       1 ****        0.0042 
     23 C23         5.8793    5.3701    6.1298 C.3       1 ****       -0.0980 
     24 C24         8.5057    4.9778    9.9170 C.ar      1 ****       -0.0925 
     25 C25         5.4959    5.5192    4.6638 C.ar      1 ****        0.0250 
     26 C26         3.7792    1.6644    7.4922 C.ar      1 ****       -0.1968 
     27 C27         8.1831    2.3656    9.0296 C.ar      1 ****        0.1208 
     28 C28         6.4367    1.1505    8.1632 C.ar      1 ****        0.1380 
     29 C29         2.3650    2.0669    7.1968 C.2       1 ****        0.5399 
     30 C30         6.4184    6.9943    8.7633 C.2       1 ****        0.5018 
     31 C31         3.5921    5.0656    7.3272 C.2       1 ****        0.4997 
     32 C32         4.9009    6.7762   11.7574 C.2       1 ****        0.6108 
     33 C33         6.9299    6.9608   10.2356 C.3       1 ****        0.0376 
     34 C34         4.8237    5.9733    7.1119 C.3       1 ****        0.0346 
     35 H35         6.9713    8.0109   10.5345 H         1 ****        0.0871 
     36 H36         4.4701    6.9346    6.7347 H         1 ****        0.0942 
     37 H37         4.5075    5.7253    0.9677 H         1 ****        0.1486 
     38 H38         5.2174    7.7925    2.1673 H         1 ****        0.1420 
     39 H39         4.4718    3.5616    2.2210 H         1 ****        0.1638 
     40 H40         5.8663    7.6458    4.5688 H         1 ****        0.1472 
     41 H41         8.9515    5.4475    7.8587 H         1 ****        0.1361 
     42 H42         8.1068    4.1837   11.8866 H         1 ****        0.1361 
     43 H43         4.5548    2.0523    5.5021 H         1 ****        0.1456 
     44 H44         3.3400    1.0913    9.5333 H         1 ****        0.1456 
     45 H45         8.6658    3.1267    7.0814 H         1 ****        0.1431 
     46 H46         7.8045    1.8693   11.0814 H         1 ****        0.1431 
     47 H47         6.8880    1.6177    6.1195 H         1 ****        0.1463 
     48 H48         5.6934    0.6711   10.1170 H         1 ****        0.1463 
     49 H49         8.7781    6.5602   11.3561 H         1 ****        0.0930 
     50 H50         9.0637    7.0494    9.7162 H         1 ****        0.0930 
     51 H51         1.8748    2.9725    5.2988 H         1 ****        0.1060 
     52 H52         1.1790    3.7924    6.6801 H         1 ****        0.1060 
     53 H53         6.0938    4.3307    6.3822 H         1 ****        0.0942 
     54 H54         6.8418    5.8691    6.2348 H         1 ****        0.0942 
     55 H55         3.6791    4.4651    5.4129 H         1 ****        0.3239 
     56 H56         4.8641    5.7244    9.1652 H         1 ****        0.2986 
     57 H57         6.2882    5.3043   11.4601 H         1 ****        0.2769 
     58 O58         4.6001    7.9958   11.2468 O.3       1 ****       -0.3380 
     59 C59         3.3807    8.7052   11.4843 C.3       1 ****        0.3047 
     60 C60         3.5297    9.9793   10.6386 C.3       1 ****       -0.2327 
     61 H61         2.6536   10.6227   10.7227 H         1 ****        0.0753 
     62 H62         4.3986   10.5613   10.9474 H         1 ****        0.0753 
     63 H63         3.6645    9.7400    9.5830 H         1 ****        0.0753 
     64 C64         2.1575    7.9080   10.9841 C.3       1 ****       -0.2327 
     65 H65         2.2932    7.5840    9.9515 H         1 ****        0.0753 
     66 H66         1.9885    7.0099   11.5783 H         1 ****        0.0753 
     67 H67         1.2458    8.5033   11.0294 H         1 ****        0.0753 
     68 C68         3.2278    9.0938   12.9689 C.3       1 ****       -0.2327 
     69 H69         3.0842    8.2199   13.6042 H         1 ****        0.0753 
     70 H70         4.1137    9.6142   13.3325 H         1 ****        0.0753 
     71 H71         2.3706    9.7492   13.1223 H         1 ****        0.0753 
     72 N72         5.1109    4.3842    4.0226 N.ar      1 ****       -0.2997 
@<TRIPOS>BOND
     1    1   55 1    
     2    1   22 1    
     3    1   31 am   BACKBONE|DICT|INTERRES
     4    2   29 2    
     5    3    6 ar   
     6    3    9 ar   
     7    3   37 1    
     8    4   56 1    
     9    4   30 am   BACKBONE|DICT|INTERRES
    10    4   34 1    
    11    5   30 2    
    12    6   11 ar   
    13    6   38 1    
    14    7   57 1    
    15    7   32 am   BACKBONE|DICT|INTERRES
    16    7   33 1    
    17    8   31 2    
    18    9   39 1    
    19    9   72 ar   
    20   10   32 2    
    21   11   25 ar   
    22   11   40 1    
    23   12   27 1    
    24   12   28 1    
    25   13   17 ar   
    26   13   24 ar   
    27   13   41 1    
    28   14   18 ar   
    29   14   24 ar   
    30   14   42 1    
    31   15   19 ar   
    32   15   26 ar   
    33   15   43 1    
    34   16   20 ar   
    35   16   26 ar   
    36   16   44 1    
    37   17   27 ar   
    38   17   45 1    
    39   18   27 ar   
    40   18   46 1    
    41   19   28 ar   
    42   19   47 1    
    43   20   28 ar   
    44   20   48 1    
    45   21   24 1    
    46   21   33 1    
    47   21   49 1    
    48   21   50 1    
    49   22   29 1    
    50   22   51 1    
    51   22   52 1    
    52   23   25 1    
    53   23   34 1    
    54   23   53 1    
    55   23   54 1    
    56   25   72 ar   
    57   26   29 1    
    58   30   33 1    
    59   31   34 1    
    60   32   58 1    
    61   33   35 1    
    62   34   36 1    
    63   58   59 1    
    64   59   60 1    
    65   59   64 1    
    66   59   68 1    
    67   60   61 1    
    68   60   62 1    
    69   60   63 1    
    70   64   65 1    
    71   64   66 1    
    72   64   67 1    
    73   68   69 1    
    74   68   70 1    
    75   68   71 1    
@<TRIPOS>SUBSTRUCTURE
     1 ****        1 GROUP             0       ****    0 ROOT    
@<TRIPOS>MOLECULE
Cpd5-8
72   75    1
SMALL
USER_CHARGES


@<TRIPOS>ATOM
      1 N1          2.8204    4.3893    6.8655 N.am      1 ****       -0.5819 
      2 O2          1.9198    1.2807    5.8285 O.2       1 ****       -0.4360 
      3 C3          4.1229    5.2668    2.3482 C.ar      1 ****       -0.1736 
      4 N4          5.3746    6.2974    8.5980 N.am      1 ****       -0.4289 
      5 O5          7.0019    7.6169    7.7584 O.2       1 ****       -0.5099 
      6 C6          4.7132    6.4211    2.8688 C.ar      1 ****       -0.0789 
      7 N7          6.3978    6.5195   11.2093 N.am      1 ****       -0.3763 
      8 O8          3.2177    4.9528    9.0188 O.2       1 ****       -0.5158 
      9 C9          4.0481    4.1312    3.1579 C.ar      1 ****        0.0068 
     10 O10         6.0548    6.1570   13.4423 O.2       1 ****       -0.5744 
     11 C11         5.2073    6.4097    4.1754 C.ar      1 ****       -0.1628 
     12 O12         7.6223    1.1527    8.7985 O.3       1 ****       -0.3030 
     13 C13         8.6800    4.6251    8.3898 C.ar      1 ****       -0.1185 
     14 C14         8.4743    4.1227   10.7495 C.ar      1 ****       -0.1185 
     15 C15         4.7342    0.9660    6.5540 C.ar      1 ****       -0.0703 
     16 C16         4.0235    1.8603    8.6884 C.ar      1 ****       -0.0703 
     17 C17         8.4246    3.2930    8.0846 C.ar      1 ****       -0.1314 
     18 C18         8.2268    2.7867   10.4417 C.ar      1 ****       -0.1314 
     19 C19         6.0168    0.7699    7.0656 C.ar      1 ****       -0.1479 
     20 C20         5.3010    1.6561    9.1942 C.ar      1 ****       -0.1479 
     21 C21         8.6326    6.5534   10.0225 C.3       1 ****       -0.1110 
     22 C22         1.8270    3.3156    7.0933 C.3       1 ****        0.0042 
     23 C23         5.6029    5.1636    6.3554 C.3       1 ****       -0.0980 
     24 C24         8.6315    5.0538    9.7185 C.ar      1 ****       -0.0925 
     25 C25         5.0914    5.2349    4.9233 C.ar      1 ****        0.0250 
     26 C26         3.7508    1.5775    7.3443 C.ar      1 ****       -0.1968 
     27 C27         8.1341    2.3905    9.1081 C.ar      1 ****        0.1208 
     28 C28         6.3142    1.1652    8.3678 C.ar      1 ****        0.1380 
     29 C29         2.4174    1.9217    6.7563 C.2       1 ****        0.5399 
     30 C30         6.4865    7.0392    8.7158 C.2       1 ****        0.5018 
     31 C31         3.4831    5.0546    7.8186 C.2       1 ****        0.4997 
     32 C32         6.6133    6.7850   12.5511 C.2       1 ****        0.6108 
     33 C33         7.1790    7.1436   10.1096 C.3       1 ****        0.0376 
     34 C34         4.6821    5.9175    7.3694 C.3       1 ****        0.0346 
     35 H35         7.2392    8.2189   10.2927 H         1 ****        0.0871 
     36 H36         4.3023    6.8398    6.9258 H         1 ****        0.0942 
     37 H37         3.7363    5.2527    1.3393 H         1 ****        0.1486 
     38 H38         4.7895    7.3148    2.2659 H         1 ****        0.1420 
     39 H39         3.6024    3.2164    2.7913 H         1 ****        0.1638 
     40 H40         5.6709    7.2906    4.5980 H         1 ****        0.1472 
     41 H41         8.8190    5.3369    7.5879 H         1 ****        0.1361 
     42 H42         8.4584    4.4419   11.7820 H         1 ****        0.1361 
     43 H43         4.5331    0.7073    5.5224 H         1 ****        0.1456 
     44 H44         3.2782    2.2997    9.3381 H         1 ****        0.1456 
     45 H45         8.3616    2.9733    7.0553 H         1 ****        0.1431 
     46 H46         8.0170    2.0756   11.2264 H         1 ****        0.1431 
     47 H47         6.7999    0.3719    6.4381 H         1 ****        0.1463 
     48 H48         5.5265    1.9417   10.2103 H         1 ****        0.1463 
     49 H49         9.1767    6.7291   10.9516 H         1 ****        0.0930 
     50 H50         9.2120    7.0785    9.2597 H         1 ****        0.0930 
     51 H51         0.9427    3.4909    6.4792 H         1 ****        0.1060 
     52 H52         1.4632    3.2914    8.1222 H         1 ****        0.1060 
     53 H53         5.7646    4.1278    6.6648 H         1 ****        0.0942 
     54 H54         6.6039    5.5920    6.3344 H         1 ****        0.0942 
     55 H55         3.1565    4.5119    5.9118 H         1 ****        0.3239 
     56 H56         4.9212    5.8940    9.4080 H         1 ****        0.2986 
     57 H57         5.8422    5.7030   11.0197 H         1 ****        0.2769 
     58 O58         7.4969    7.7981   12.7422 O.3       1 ****       -0.3380 
     59 C59         7.9294    8.2798   14.0184 C.3       1 ****        0.3047 
     60 C60         8.9163    9.4046   13.6689 C.3       1 ****       -0.2327 
     61 H61         9.3305    9.8684   14.5644 H         1 ****        0.0753 
     62 H62         9.7506    9.0306   13.0744 H         1 ****        0.0753 
     63 H63         8.4335   10.1885   13.0844 H         1 ****        0.0753 
     64 C64         6.7577    8.8678   14.8314 C.3       1 ****       -0.2327 
     65 H65         6.2075    9.6075   14.2499 H         1 ****        0.0753 
     66 H66         6.0453    8.0989   15.1304 H         1 ****        0.0753 
     67 H67         7.1089    9.3546   15.7411 H         1 ****        0.0753 
     68 C68         8.6705    7.1870   14.8166 C.3       1 ****       -0.2327 
     69 H69         8.0021    6.3799   15.1158 H         1 ****        0.0753 
     70 H70         9.4700    6.7410   14.2251 H         1 ****        0.0753 
     71 H71         9.1160    7.5912   15.7256 H         1 ****        0.0753 
     72 N72         4.5222    4.1044    4.4298 N.ar      1 ****       -0.2997 
@<TRIPOS>BOND
     1    1   55 1    
     2    1   22 1    
     3    1   31 am   BACKBONE|DICT|INTERRES
     4    2   29 2    
     5    3    6 ar   
     6    3    9 ar   
     7    3   37 1    
     8    4   56 1    
     9    4   30 am   BACKBONE|DICT|INTERRES
    10    4   34 1    
    11    5   30 2    
    12    6   11 ar   
    13    6   38 1    
    14    7   57 1    
    15    7   32 am   BACKBONE|DICT|INTERRES
    16    7   33 1    
    17    8   31 2    
    18    9   39 1    
    19    9   72 ar   
    20   10   32 2    
    21   11   25 ar   
    22   11   40 1    
    23   12   27 1    
    24   12   28 1    
    25   13   17 ar   
    26   13   24 ar   
    27   13   41 1    
    28   14   18 ar   
    29   14   24 ar   
    30   14   42 1    
    31   15   19 ar   
    32   15   26 ar   
    33   15   43 1    
    34   16   20 ar   
    35   16   26 ar   
    36   16   44 1    
    37   17   27 ar   
    38   17   45 1    
    39   18   27 ar   
    40   18   46 1    
    41   19   28 ar   
    42   19   47 1    
    43   20   28 ar   
    44   20   48 1    
    45   21   24 1    
    46   21   33 1    
    47   21   49 1    
    48   21   50 1    
    49   22   29 1    
    50   22   51 1    
    51   22   52 1    
    52   23   25 1    
    53   23   34 1    
    54   23   53 1    
    55   23   54 1    
    56   25   72 ar   
    57   26   29 1    
    58   30   33 1    
    59   31   34 1    
    60   32   58 1    
    61   33   35 1    
    62   34   36 1    
    63   58   59 1    
    64   59   60 1    
    65   59   64 1    
    66   59   68 1    
    67   60   61 1    
    68   60   62 1    
    69   60   63 1    
    70   64   65 1    
    71   64   66 1    
    72   64   67 1    
    73   68   69 1    
    74   68   70 1    
    75   68   71 1    
@<TRIPOS>SUBSTRUCTURE
     1 ****        1 GROUP             0       ****    0 ROOT    
@<TRIPOS>MOLECULE
Cpd5-9-MEC
72   75    1
SMALL
USER_CHARGES


@<TRIPOS>ATOM
      1 N1          2.6149    4.3925    7.4506 N.am      1 ****       -0.5819 
      2 O2          1.3835    1.2240    7.3642 O.2       1 ****       -0.4360 
      3 C3         -0.9032    6.3189    9.4541 C.ar      1 ****       -0.1736 
      4 N4          5.4652    6.5366    8.1372 N.am      1 ****       -0.4289 
      5 O5          5.9436    7.2395   10.2362 O.2       1 ****       -0.5099 
      6 C6         -0.6819    7.1619    8.3627 C.ar      1 ****       -0.0789 
      7 N7          8.0697    8.6894    8.5599 N.am      1 ****       -0.3763 
      8 O8          4.3581    5.1210    6.2010 O.2       1 ****       -0.5158 
      9 C9          0.1994    5.8603   10.1777 C.ar      1 ****        0.0068 
     10 O10         7.4053    8.8879    6.3427 O.2       1 ****       -0.5744 
     11 C11         0.6254    7.5219    8.0268 C.ar      1 ****       -0.1628 
     12 O12         7.6186    1.0995    8.8920 O.3       1 ****       -0.3030 
     13 C13         9.3139    4.3176    8.5385 C.ar      1 ****       -0.1185 
     14 C14         7.8472    4.3887   10.4658 C.ar      1 ****       -0.1185 
     15 C15         4.8381    2.0091    6.6865 C.ar      1 ****       -0.0703 
     16 C16         3.9871    0.7686    8.5830 C.ar      1 ****       -0.0703 
     17 C17         9.0305    2.9634    8.3747 C.ar      1 ****       -0.1314 
     18 C18         7.5609    3.0389   10.2956 C.ar      1 ****       -0.1314 
     19 C19         6.1351    1.7874    7.1286 C.ar      1 ****       -0.1479 
     20 C20         5.2921    0.5554    9.0264 C.ar      1 ****       -0.1479 
     21 C21         8.8087    6.5575    9.6057 C.3       1 ****       -0.1110 
     22 C22         2.0947    3.3537    6.5306 C.3       1 ****        0.0042 
     23 C23         3.1291    7.3679    8.4725 C.3       1 ****       -0.0980 
     24 C24         8.6783    5.0399    9.5521 C.ar      1 ****       -0.0925 
     25 C25         1.6781    7.0213    8.7988 C.ar      1 ****        0.0250 
     26 C26         3.7528    1.5614    7.4497 C.ar      1 ****       -0.1968 
     27 C27         8.1063    2.3438    9.2152 C.ar      1 ****        0.1208 
     28 C28         6.3613    1.1161    8.3317 C.ar      1 ****        0.1380 
     29 C29         2.3537    1.9189    7.0556 C.2       1 ****        0.5399 
     30 C30         6.2927    7.0138    9.0762 C.2       1 ****        0.5018 
     31 C31         3.6876    5.1651    7.2332 C.2       1 ****        0.4997 
     32 C32         7.8319    9.3762    7.3868 C.2       1 ****        0.6108 
     33 C33         7.7736    7.2501    8.6698 C.3       1 ****        0.0376 
     34 C34         4.0777    6.1398    8.3599 C.3       1 ****        0.0346 
     35 H35         7.9275    6.7875    7.6899 H         1 ****        0.0871 
     36 H36         4.0527    5.5770    9.2962 H         1 ****        0.0942 
     37 H37        -1.9066    6.0318    9.7343 H         1 ****        0.1486 
     38 H38        -1.5149    7.5349    7.7840 H         1 ****        0.1420 
     39 H39         0.0704    5.2116   11.0333 H         1 ****        0.1638 
     40 H40         0.8128    8.1730    7.1852 H         1 ****        0.1472 
     41 H41         9.9689    4.8134    7.8365 H         1 ****        0.1361 
     42 H42         7.3541    4.9428   11.2528 H         1 ****        0.1361 
     43 H43         4.7000    2.5895    5.7842 H         1 ****        0.1456 
     44 H44         3.1631    0.3749    9.1639 H         1 ****        0.1456 
     45 H45         9.4531    2.4128    7.5480 H         1 ****        0.1431 
     46 H46         6.8472    2.5503   10.9414 H         1 ****        0.1431 
     47 H47         6.9651    2.2059    6.5804 H         1 ****        0.1463 
     48 H48         5.4770    0.0181    9.9444 H         1 ****        0.1463 
     49 H49         8.6926    6.9051   10.6346 H         1 ****        0.0930 
     50 H50         9.8259    6.8306    9.3193 H         1 ****        0.0930 
     51 H51         2.5238    3.4308    5.5299 H         1 ****        0.1060 
     52 H52         1.0231    3.4958    6.3836 H         1 ****        0.1060 
     53 H53         3.1791    7.9583    7.5562 H         1 ****        0.0942 
     54 H54         3.4826    8.0295    9.2647 H         1 ****        0.0942 
     55 H55         2.0875    4.5849    8.2971 H         1 ****        0.3239 
     56 H56         5.7938    6.3426    7.1982 H         1 ****        0.2986 
     57 H57         8.2757    9.2261    9.3856 H         1 ****        0.2769 
     58 O58         8.1330   10.6736    7.5870 O.3       1 ****       -0.3380 
     59 C59         8.0026   11.7055    6.6019 C.3       1 ****        0.3047 
     60 C60         8.4719   12.9731    7.3331 C.3       1 ****       -0.2327 
     61 H61         8.4227   13.8507    6.6882 H         1 ****        0.0753 
     62 H62         7.8584   13.1746    8.2119 H         1 ****        0.0753 
     63 H63         9.5017   12.8741    7.6778 H         1 ****        0.0753 
     64 C64         8.9206   11.4539    5.3873 C.3       1 ****       -0.2327 
     65 H65         9.9499   11.2804    5.7011 H         1 ****        0.0753 
     66 H66         8.6068   10.5803    4.8160 H         1 ****        0.0753 
     67 H67         8.9201   12.3036    4.7048 H         1 ****        0.0753 
     68 C68         6.5352   11.8900    6.1618 C.3       1 ****       -0.2327 
     69 H69         6.1661   11.0261    5.6092 H         1 ****        0.0753 
     70 H70         5.8802   12.0250    7.0226 H         1 ****        0.0753 
     71 H71         6.4193   12.7605    5.5163 H         1 ****        0.0753 
     72 N72         1.4762    6.1960    9.8610 N.ar      1 ****       -0.2997 
@<TRIPOS>BOND
     1    1   55 1    
     2    1   22 1    
     3    1   31 am   BACKBONE|DICT|INTERRES
     4    2   29 2    
     5    3    6 ar   
     6    3    9 ar   
     7    3   37 1    
     8    4   56 1    
     9    4   30 am   BACKBONE|DICT|INTERRES
    10    4   34 1    
    11    5   30 2    
    12    6   11 ar   
    13    6   38 1    
    14    7   57 1    
    15    7   32 am   BACKBONE|DICT|INTERRES
    16    7   33 1    
    17    8   31 2    
    18    9   39 1    
    19    9   72 ar   
    20   10   32 2    
    21   11   25 ar   
    22   11   40 1    
    23   12   27 1    
    24   12   28 1    
    25   13   17 ar   
    26   13   24 ar   
    27   13   41 1    
    28   14   18 ar   
    29   14   24 ar   
    30   14   42 1    
    31   15   19 ar   
    32   15   26 ar   
    33   15   43 1    
    34   16   20 ar   
    35   16   26 ar   
    36   16   44 1    
    37   17   27 ar   
    38   17   45 1    
    39   18   27 ar   
    40   18   46 1    
    41   19   28 ar   
    42   19   47 1    
    43   20   28 ar   
    44   20   48 1    
    45   21   24 1    
    46   21   33 1    
    47   21   49 1    
    48   21   50 1    
    49   22   29 1    
    50   22   51 1    
    51   22   52 1    
    52   23   25 1    
    53   23   34 1    
    54   23   53 1    
    55   23   54 1    
    56   25   72 ar   
    57   26   29 1    
    58   30   33 1    
    59   31   34 1    
    60   32   58 1    
    61   33   35 1    
    62   34   36 1    
    63   58   59 1    
    64   59   60 1    
    65   59   64 1    
    66   59   68 1    
    67   60   61 1    
    68   60   62 1    
    69   60   63 1    
    70   64   65 1    
    71   64   66 1    
    72   64   67 1    
    73   68   69 1    
    74   68   70 1    
    75   68   71 1    
@<TRIPOS>SUBSTRUCTURE
     1 ****        1 GROUP             0       ****    0 ROOT    
@<TRIPOS>MOLECULE
Cpd5-10
72   75    1
SMALL
USER_CHARGES


@<TRIPOS>ATOM
      1 N1          2.8749    4.4408    6.8535 N.am      1 ****       -0.5819 
      2 O2          2.0890    1.3206    5.6990 O.2       1 ****       -0.4360 
      3 C3          7.4301    3.6234    4.3619 C.ar      1 ****       -0.1736 
      4 N4          5.3362    6.3137    8.5475 N.am      1 ****       -0.4289 
      5 O5          6.8157    7.8972    7.8758 O.2       1 ****       -0.5099 
      6 C6          7.9467    4.8587    4.7584 C.ar      1 ****       -0.0789 
      7 N7          6.4460    6.2611   11.1460 N.am      1 ****       -0.3763 
      8 O8          3.0015    5.0429    9.0233 O.2       1 ****       -0.5158 
      9 C9          6.0687    3.3797    4.5509 C.ar      1 ****        0.0068 
     10 O10         5.1265    8.0527   11.8117 O.2       1 ****       -0.5744 
     11 C11         7.0953    5.8050    5.3333 C.ar      1 ****       -0.1628 
     12 O12         7.6425    1.0549    8.8926 O.3       1 ****       -0.3030 
     13 C13         8.5784    4.5399    8.3389 C.ar      1 ****       -0.1185 
     14 C14         8.6834    4.0495   10.7068 C.ar      1 ****       -0.1185 
     15 C15         4.1005    1.9692    8.6394 C.ar      1 ****       -0.0703 
     16 C16         4.7711    0.7822    6.6410 C.ar      1 ****       -0.0703 
     17 C17         8.3305    3.1999    8.0734 C.ar      1 ****       -0.1314 
     18 C18         8.4349    2.7040   10.4381 C.ar      1 ****       -0.1314 
     19 C19         5.3492    1.7267    9.1956 C.ar      1 ****       -0.1479 
     20 C20         6.0272    0.5498    7.2005 C.ar      1 ****       -0.1479 
     21 C21         8.6424    6.4744    9.9452 C.3       1 ****       -0.1110 
     22 C22         1.9136    3.3210    7.0002 C.3       1 ****        0.0042 
     23 C23         4.7500    6.5120    6.0291 C.3       1 ****       -0.0980 
     24 C24         8.6780    4.9760    9.6586 C.ar      1 ****       -0.0925 
     25 C25         5.7447    5.4840    5.4980 C.ar      1 ****        0.0250 
     26 C26         3.8278    1.5614    7.3280 C.ar      1 ****       -0.1968 
     27 C27         8.1853    2.2973    9.1283 C.ar      1 ****        0.1208 
     28 C28         6.3370    1.0777    8.4509 C.ar      1 ****        0.1380 
     29 C29         2.5419    1.9450    6.6607 C.2       1 ****        0.5399 
     30 C30         6.4146    7.0935    8.7172 C.2       1 ****        0.5018 
     31 C31         3.3269    5.2146    7.8486 C.2       1 ****        0.4997 
     32 C32         5.4703    6.8773   11.9020 C.2       1 ****        0.6108 
     33 C33         7.1740    6.9852   10.0771 C.3       1 ****        0.0376 
     34 C34         4.2999    6.3651    7.5197 C.3       1 ****        0.0346 
     35 H35         7.2704    8.0276   10.3940 H         1 ****        0.0871 
     36 H36         3.7278    7.2658    7.7500 H         1 ****        0.0942 
     37 H37         8.0691    2.8764    3.9138 H         1 ****        0.1486 
     38 H38         8.9944    5.0833    4.6192 H         1 ****        0.1420 
     39 H39         5.6268    2.4398    4.2523 H         1 ****        0.1638 
     40 H40         7.4737    6.7710    5.6365 H         1 ****        0.1472 
     41 H41         8.5896    5.2495    7.5258 H         1 ****        0.1361 
     42 H42         8.7916    4.3767   11.7310 H         1 ****        0.1361 
     43 H43         3.3824    2.5288    9.2228 H         1 ****        0.1456 
     44 H44         4.5643    0.4145    5.6447 H         1 ****        0.1456 
     45 H45         8.1369    2.8792    7.0612 H         1 ****        0.1431 
     46 H46         8.3390    1.9924   11.2445 H         1 ****        0.1431 
     47 H47         5.5828    2.1130   10.1758 H         1 ****        0.1463 
     48 H48         6.7882    0.0278    6.6404 H         1 ****        0.1463 
     49 H49         9.1953    6.6793   10.8634 H         1 ****        0.0930 
     50 H50         9.1756    7.0175    9.1615 H         1 ****        0.0930 
     51 H51         1.0547    3.4902    6.3494 H         1 ****        0.1060 
     52 H52         1.4951    3.2546    8.0062 H         1 ****        0.1060 
     53 H53         5.1916    7.5010    5.8994 H         1 ****        0.0942 
     54 H54         3.8809    6.5304    5.3698 H         1 ****        0.0942 
     55 H55         3.3064    4.5770    5.9436 H         1 ****        0.3239 
     56 H56         5.0815    5.6834    9.2960 H         1 ****        0.2986 
     57 H57         6.6044    5.2759   11.2793 H         1 ****        0.2769 
     58 O58         4.9374    5.9596   12.7305 O.3       1 ****       -0.3380 
     59 C59         3.8049    6.1861   13.5783 C.3       1 ****        0.3047 
     60 C60         3.5939    4.8375   14.2842 C.3       1 ****       -0.2327 
     61 H61         2.7468    4.8709   14.9698 H         1 ****        0.0753 
     62 H62         3.4047    4.0397   13.5651 H         1 ****        0.0753 
     63 H63         4.4738    4.5485   14.8597 H         1 ****        0.0753 
     64 C64         4.0904    7.2705   14.6382 C.3       1 ****       -0.2327 
     65 H65         5.0081    7.0543   15.1852 H         1 ****        0.0753 
     66 H66         4.2082    8.2567   14.1894 H         1 ****        0.0753 
     67 H67         3.2801    7.3413   15.3637 H         1 ****        0.0753 
     68 C68         2.5446    6.5275   12.7552 C.3       1 ****       -0.2327 
     69 H69         2.6313    7.4975   12.2657 H         1 ****        0.0753 
     70 H70         2.3746    5.7892   11.9704 H         1 ****        0.0753 
     71 H71         1.6535    6.5587   13.3819 H         1 ****        0.0753 
     72 N72         5.2277    4.2919    5.1013 N.ar      1 ****       -0.2997 
@<TRIPOS>BOND
     1    1   55 1    
     2    1   22 1    
     3    1   31 am   BACKBONE|DICT|INTERRES
     4    2   29 2    
     5    3    6 ar   
     6    3    9 ar   
     7    3   37 1    
     8    4   56 1    
     9    4   30 am   BACKBONE|DICT|INTERRES
    10    4   34 1    
    11    5   30 2    
    12    6   11 ar   
    13    6   38 1    
    14    7   57 1    
    15    7   32 am   BACKBONE|DICT|INTERRES
    16    7   33 1    
    17    8   31 2    
    18    9   39 1    
    19    9   72 ar   
    20   10   32 2    
    21   11   25 ar   
    22   11   40 1    
    23   12   27 1    
    24   12   28 1    
    25   13   17 ar   
    26   13   24 ar   
    27   13   41 1    
    28   14   18 ar   
    29   14   24 ar   
    30   14   42 1    
    31   15   19 ar   
    32   15   26 ar   
    33   15   43 1    
    34   16   20 ar   
    35   16   26 ar   
    36   16   44 1    
    37   17   27 ar   
    38   17   45 1    
    39   18   27 ar   
    40   18   46 1    
    41   19   28 ar   
    42   19   47 1    
    43   20   28 ar   
    44   20   48 1    
    45   21   24 1    
    46   21   33 1    
    47   21   49 1    
    48   21   50 1    
    49   22   29 1    
    50   22   51 1    
    51   22   52 1    
    52   23   25 1    
    53   23   34 1    
    54   23   53 1    
    55   23   54 1    
    56   25   72 ar   
    57   26   29 1    
    58   30   33 1    
    59   31   34 1    
    60   32   58 1    
    61   33   35 1    
    62   34   36 1    
    63   58   59 1    
    64   59   60 1    
    65   59   64 1    
    66   59   68 1    
    67   60   61 1    
    68   60   62 1    
    69   60   63 1    
    70   64   65 1    
    71   64   66 1    
    72   64   67 1    
    73   68   69 1    
    74   68   70 1    
    75   68   71 1    
@<TRIPOS>SUBSTRUCTURE
     1 ****        1 GROUP             0       ****    0 ROOT    
