@<TRIPOS>MOLECULE
Cpd5-1
72   75    1
SMALL
USER_CHARGES


@<TRIPOS>ATOM
      1 N1         -3.0993    1.3644   -1.6792 N.am      1 UNK         0.0000 
      2 O2         -6.1266    0.5626   -1.2161 O.2       1 UNK         0.0000 
      3 C3          2.0841    5.4412    0.7814 C.ar      1 UNK         0.0000 
      4 N4         -0.2265    0.9958    0.4305 N.am      1 UNK         0.0000 
      5 O5          1.6796    0.3671   -0.6778 O.2       1 UNK         0.0000 
      6 C6          2.8135    4.5085    0.0502 C.ar      1 UNK         0.0000 
      7 N7          0.8328    0.3702    2.8512 N.am      1 UNK         0.0000 
      8 O8         -1.5026   -0.2392   -1.9053 O.2       1 UNK         0.0000 
      9 C9          0.6928    5.3743    0.7293 C.ar      1 UNK         0.0000 
     10 O10         1.6672    2.4526    3.2643 O.2       1 UNK         0.0000 
     11 C11         2.1267    3.5574   -0.7001 C.ar      1 UNK         0.0000 
     12 O12        -2.5237   -4.3606    0.8282 O.3       1 UNK         0.0000 
     13 C13         0.6731   -2.6671    0.2007 C.ar      1 UNK         0.0000 
     14 C14         0.3196   -2.8205    2.5748 C.ar      1 UNK         0.0000 
     15 C15        -4.5922   -1.3641    0.4448 C.ar      1 UNK         0.0000 
     16 C16        -4.0833   -2.2777   -1.7398 C.ar      1 UNK         0.0000 
     17 C17        -0.4819   -3.4031   -0.0248 C.ar      1 UNK         0.0000 
     18 C18        -0.8565   -3.5451    2.3619 C.ar      1 UNK         0.0000 
     19 C19        -3.9401   -2.4356    1.0467 C.ar      1 UNK         0.0000 
     20 C20        -3.4877   -3.3836   -1.1438 C.ar      1 UNK         0.0000 
     21 C21         2.1911   -1.3399    1.6952 C.3       1 UNK         0.0000 
     22 C22        -4.1143    0.7256   -2.5038 C.3       1 UNK         0.0000 
     23 C23        -0.0721    2.5825   -1.5060 C.3       1 UNK         0.0000 
     24 C24         1.0651   -2.3235    1.5001 C.ar      1 UNK         0.0000 
     25 C25         0.7301    3.5770   -0.7004 C.ar      1 UNK         0.0000 
     26 C26        -4.6121   -1.2535   -0.9491 C.ar      1 UNK         0.0000 
     27 C27        -1.2692   -3.7883    1.0585 C.ar      1 UNK         0.0000 
     28 C28        -3.3526   -3.4091    0.2417 C.ar      1 UNK         0.0000 
     29 C29        -5.0920    0.0222   -1.5570 C.2       1 UNK         0.0000 
     30 C30         1.0278    0.4958    0.3549 C.2       1 UNK         0.0000 
     31 C31        -1.8730    0.8299   -1.4394 C.2       1 UNK         0.0000 
     32 C32         0.9421    1.5219    3.5754 C.2       1 UNK         0.0000 
     33 C33         1.6778    0.1163    1.7042 C.3       1 UNK         0.0000 
     34 C34        -0.9656    1.7303   -0.5875 C.3       1 UNK         0.0000 
     35 H35         2.5398    0.7870    1.7857 H         1 UNK         0.0000 
     36 H36        -1.5958    2.4308   -0.0308 H         1 UNK         0.0000 
     37 H37         2.5729    6.1999    1.3822 H         1 UNK         0.0000 
     38 H38         3.8989    4.5183    0.0650 H         1 UNK         0.0000 
     39 H39         0.0878    6.0821    1.2909 H         1 UNK         0.0000 
     40 H40         2.6532    2.8026   -1.2744 H         1 UNK         0.0000 
     41 H41         1.2588   -2.3156   -0.6440 H         1 UNK         0.0000 
     42 H42         0.6408   -2.6206    3.5947 H         1 UNK         0.0000 
     43 H43        -5.0259   -0.5746    1.0511 H         1 UNK         0.0000 
     44 H44        -4.1122   -2.2078   -2.8229 H         1 UNK         0.0000 
     45 H45        -0.8007   -3.6299   -1.0362 H         1 UNK         0.0000 
     46 H46        -1.4686   -3.8816    3.1925 H         1 UNK         0.0000 
     47 H47        -3.8318   -2.4953    2.1249 H         1 UNK         0.0000 
     48 H48        -3.0560   -4.1793   -1.7414 H         1 UNK         0.0000 
     49 H49         2.7139   -1.5132    2.6401 H         1 UNK         0.0000 
     50 H50         2.9154   -1.4287    0.8823 H         1 UNK         0.0000 
     51 H51        -4.6487    1.4828   -3.0792 H         1 UNK         0.0000 
     52 H52        -3.6142    0.0235   -3.1730 H         1 UNK         0.0000 
     53 H53        -0.7354    3.1290   -2.1854 H         1 UNK         0.0000 
     54 H54         0.5847    1.9446   -2.0967 H         1 UNK         0.0000 
     55 H55        -3.3560    2.2259   -1.2158 H         1 UNK         0.0000 
     56 H56        -0.6249    1.0176    1.3598 H         1 UNK         0.0000 
     57 H57         0.2484   -0.3677    3.2239 H         1 UNK         0.0000 
     58 O58         0.1345    1.4736    4.6435 O.3       1 UNK         0.0000 
     59 C59         0.0060    2.6233    5.5427 C.3       1 UNK         0.0000 
     60 C60        -0.5259    3.8302    4.7756 C.3       1 UNK         0.0000 
     61 H61        -0.7728    4.6227    5.4878 H         1 UNK         0.0000 
     62 H62         0.2119    4.2109    4.0682 H         1 UNK         0.0000 
     63 H63        -1.4380    3.5595    4.2345 H         1 UNK         0.0000 
     64 C64        -1.0216    2.1390    6.5587 C.3       1 UNK         0.0000 
     65 H65        -1.9670    1.9014    6.0630 H         1 UNK         0.0000 
     66 H66        -0.6579    1.2455    7.0736 H         1 UNK         0.0000 
     67 H67        -1.2018    2.9214    7.3004 H         1 UNK         0.0000 
     68 C68         1.3412    2.9060    6.2240 C.3       1 UNK         0.0000 
     69 H69         1.1917    3.6650    6.9975 H         1 UNK         0.0000 
     70 H70         1.7181    1.9976    6.7035 H         1 UNK         0.0000 
     71 H71         2.0817    3.2710    5.5118 H         1 UNK         0.0000 
     72 N72         0.0239    4.4695    0.0089 N.ar      1 UNK         0.0000 
@<TRIPOS>BOND
     1    1   22 1    
     2    1   55 1    
     3    1   31 am   BACKBONE|DICT|INTERRES
     4    2   29 2    
     5    3   37 1    
     6    3    9 ar   
     7    3    6 ar   
     8    4   34 1    
     9    4   56 1    
    10    4   30 am   BACKBONE|DICT|INTERRES
    11    5   30 2    
    12    6   11 ar   
    13    6   38 1    
    14    7   57 1    
    15    7   32 am   BACKBONE|DICT|INTERRES
    16    7   33 1    
    17    8   31 2    
    18    9   39 1    
    19    9   72 ar   
    20   10   32 2    
    21   11   25 ar   
    22   11   40 1    
    23   12   28 1    
    24   12   27 1    
    25   13   24 ar   
    26   13   17 ar   
    27   13   41 1    
    28   14   42 1    
    29   14   18 ar   
    30   14   24 ar   
    31   15   43 1    
    32   15   19 ar   
    33   15   26 ar   
    34   16   26 ar   
    35   16   20 ar   
    36   16   44 1    
    37   17   27 ar   
    38   17   45 1    
    39   18   46 1    
    40   18   27 ar   
    41   19   47 1    
    42   19   28 ar   
    43   20   28 ar   
    44   20   48 1    
    45   21   24 1    
    46   21   33 1    
    47   21   49 1    
    48   21   50 1    
    49   22   51 1    
    50   22   29 1    
    51   22   52 1    
    52   23   25 1    
    53   23   53 1    
    54   23   34 1    
    55   23   54 1    
    56   25   72 ar   
    57   26   29 1    
    58   30   33 1    
    59   31   34 1    
    60   32   58 1    
    61   33   35 1    
    62   34   36 1    
    63   58   59 1    
    64   59   60 1    
    65   59   64 1    
    66   59   68 1    
    67   60   63 1    
    68   60   61 1    
    69   60   62 1    
    70   64   65 1    
    71   64   67 1    
    72   64   66 1    
    73   68   69 1    
    74   68   70 1    
    75   68   71 1    
@<TRIPOS>SUBSTRUCTURE
     1 UNK         1 GROUP             0       ****    0 ROOT    
@<TRIPOS>MOLECULE
Cpd5-2
72   75    1
SMALL
USER_CHARGES


@<TRIPOS>ATOM
      1 N1         -3.0739    1.1966   -1.9248 N.am      1 UNK         0.0000 
      2 O2         -6.0217   -0.2149   -2.5838 O.2       1 UNK         0.0000 
      3 C3         -2.3293   -1.8796   -5.7913 C.ar      1 UNK         0.0000 
      4 N4          0.0432    0.4412   -0.2350 N.am      1 UNK         0.0000 
      5 O5          1.9057   -0.3494   -1.2662 O.2       1 UNK         0.0000 
      6 C6         -1.9885   -2.9431   -4.9540 C.ar      1 UNK         0.0000 
      7 N7          1.3499    0.7563    2.1383 N.am      1 UNK         0.0000 
      8 O8         -2.3022    1.4771    0.1983 O.2       1 UNK         0.0000 
      9 C9         -2.2636   -0.5937   -5.2731 C.ar      1 UNK         0.0000 
     10 O10         2.0384    2.8180    1.4617 O.2       1 UNK         0.0000 
     11 C11        -1.5914   -2.6726   -3.6523 C.ar      1 UNK         0.0000 
     12 O12        -2.6494   -3.9527    1.4042 O.3       1 UNK         0.0000 
     13 C13         0.7581   -2.9805    0.4750 C.ar      1 UNK         0.0000 
     14 C14         0.3518   -2.3027    2.7455 C.ar      1 UNK         0.0000 
     15 C15        -4.2265   -0.7814    0.4614 C.ar      1 UNK         0.0000 
     16 C16        -4.5241   -2.3785   -1.3300 C.ar      1 UNK         0.0000 
     17 C17        -0.4853   -3.6016    0.4321 C.ar      1 UNK         0.0000 
     18 C18        -0.9025   -2.9152    2.7140 C.ar      1 UNK         0.0000 
     19 C19        -3.6141   -1.7577    1.2343 C.ar      1 UNK         0.0000 
     20 C20        -3.8849   -3.3579   -0.5708 C.ar      1 UNK         0.0000 
     21 C21         2.3986   -1.3970    1.5346 C.3       1 UNK         0.0000 
     22 C22        -4.4880    1.3728   -1.6437 C.3       1 UNK         0.0000 
     23 C23        -1.1020   -1.0617   -1.7939 C.3       1 UNK         0.0000 
     24 C24         1.1678   -2.2687    1.6084 C.ar      1 UNK         0.0000 
     25 C25        -1.5493   -1.3429   -3.2116 C.ar      1 UNK         0.0000 
     26 C26        -4.6583   -1.0750   -0.8377 C.ar      1 UNK         0.0000 
     27 C27        -1.3318   -3.5067    1.5317 C.ar      1 UNK         0.0000 
     28 C28        -3.4015   -3.0254    0.6936 C.ar      1 UNK         0.0000 
     29 C29        -5.1754    0.0017   -1.7372 C.2       1 UNK         0.0000 
     30 C30         1.3252    0.0417   -0.2515 C.2       1 UNK         0.0000 
     31 C31        -2.1356    1.1042   -0.9619 C.2       1 UNK         0.0000 
     32 C32         1.4215    2.1128    2.2446 C.2       1 UNK         0.0000 
     33 C33         2.0652    0.0505    1.0975 C.3       1 UNK         0.0000 
     34 C34        -0.8320    0.4046   -1.3914 C.3       1 UNK         0.0000 
     35 H35         3.0053    0.5791    0.9144 H         1 UNK         0.0000 
     36 H36        -0.3731    0.9413   -2.2300 H         1 UNK         0.0000 
     37 H37        -2.6424   -2.0421   -6.8161 H         1 UNK         0.0000 
     38 H38        -2.0295   -3.9661   -5.3142 H         1 UNK         0.0000 
     39 H39        -2.5281    0.2663   -5.8821 H         1 UNK         0.0000 
     40 H40        -1.3139   -3.4751   -2.9756 H         1 UNK         0.0000 
     41 H41         1.4029   -3.0057   -0.4000 H         1 UNK         0.0000 
     42 H42         0.6837   -1.8295    3.6672 H         1 UNK         0.0000 
     43 H43        -4.3385    0.2168    0.8689 H         1 UNK         0.0000 
     44 H44        -4.8657   -2.6048   -2.3359 H         1 UNK         0.0000 
     45 H45        -0.8295   -4.1109   -0.4632 H         1 UNK         0.0000 
     46 H46        -1.5575   -2.8972    3.5791 H         1 UNK         0.0000 
     47 H47        -3.2552   -1.5274    2.2316 H         1 UNK         0.0000 
     48 H48        -3.7145   -4.3544   -0.9648 H         1 UNK         0.0000 
     49 H49         2.9106   -1.3422    2.4999 H         1 UNK         0.0000 
     50 H50         3.1001   -1.8035    0.8022 H         1 UNK         0.0000 
     51 H51        -4.9463    2.0357   -2.3788 H         1 UNK         0.0000 
     52 H52        -4.5965    1.8094   -0.6482 H         1 UNK         0.0000 
     53 H53        -1.8246   -1.4979   -1.0899 H         1 UNK         0.0000 
     54 H54        -0.1645   -1.6028   -1.6433 H         1 UNK         0.0000 
     55 H55        -2.7996    0.8636   -2.8533 H         1 UNK         0.0000 
     56 H56        -0.3820    0.7472    0.6337 H         1 UNK         0.0000 
     57 H57         0.8135    0.2524    2.8316 H         1 UNK         0.0000 
     58 O58         0.7215    2.5334    3.3073 O.3       1 UNK         0.0000 
     59 C59         0.5797    3.9614    3.6011 C.3       1 UNK         0.0000 
     60 C60         1.9433    4.5703    3.9117 C.3       1 UNK         0.0000 
     61 H61         1.8016    5.5924    4.2746 H         1 UNK         0.0000 
     62 H62         2.4423    3.9938    4.6964 H         1 UNK         0.0000 
     63 H63         2.5781    4.5966    3.0255 H         1 UNK         0.0000 
     64 C64        -0.1248    4.6641    2.4445 C.3       1 UNK         0.0000 
     65 H65         0.5041    4.6944    1.5540 H         1 UNK         0.0000 
     66 H66        -1.0614    4.1503    2.2074 H         1 UNK         0.0000 
     67 H67        -0.3618    5.6893    2.7433 H         1 UNK         0.0000 
     68 C68        -0.3023    3.9603    4.8441 C.3       1 UNK         0.0000 
     69 H69        -1.2644    3.4869    4.6296 H         1 UNK         0.0000 
     70 H70         0.1855    3.4168    5.6581 H         1 UNK         0.0000 
     71 H71        -0.4822    4.9885    5.1682 H         1 UNK         0.0000 
     72 N72        -1.8838   -0.3274   -4.0140 N.ar      1 UNK         0.0000 
@<TRIPOS>BOND
     1    1   31 am   BACKBONE|DICT|INTERRES
     2    1   55 1    
     3    1   22 1    
     4    2   29 2    
     5    3   37 1    
     6    3    6 ar   
     7    3    9 ar   
     8    4   34 1    
     9    4   30 am   BACKBONE|DICT|INTERRES
    10    4   56 1    
    11    5   30 2    
    12    6   38 1    
    13    6   11 ar   
    14    7   32 am   BACKBONE|DICT|INTERRES
    15    7   33 1    
    16    7   57 1    
    17    8   31 2    
    18    9   39 1    
    19    9   72 ar   
    20   10   32 2    
    21   11   25 ar   
    22   11   40 1    
    23   12   28 1    
    24   12   27 1    
    25   13   41 1    
    26   13   17 ar   
    27   13   24 ar   
    28   14   24 ar   
    29   14   18 ar   
    30   14   42 1    
    31   15   26 ar   
    32   15   19 ar   
    33   15   43 1    
    34   16   44 1    
    35   16   20 ar   
    36   16   26 ar   
    37   17   45 1    
    38   17   27 ar   
    39   18   27 ar   
    40   18   46 1    
    41   19   28 ar   
    42   19   47 1    
    43   20   48 1    
    44   20   28 ar   
    45   21   33 1    
    46   21   50 1    
    47   21   24 1    
    48   21   49 1    
    49   22   51 1    
    50   22   29 1    
    51   22   52 1    
    52   23   34 1    
    53   23   54 1    
    54   23   25 1    
    55   23   53 1    
    56   25   72 ar   
    57   26   29 1    
    58   30   33 1    
    59   31   34 1    
    60   32   58 1    
    61   33   35 1    
    62   34   36 1    
    63   58   59 1    
    64   59   64 1    
    65   59   60 1    
    66   59   68 1    
    67   60   63 1    
    68   60   61 1    
    69   60   62 1    
    70   64   65 1    
    71   64   66 1    
    72   64   67 1    
    73   68   69 1    
    74   68   70 1    
    75   68   71 1    
@<TRIPOS>SUBSTRUCTURE
     1 UNK         1 GROUP             0       ****    0 ROOT    
@<TRIPOS>MOLECULE
Cpd5-3-MRC
72   75    1
SMALL
USER_CHARGES


@<TRIPOS>ATOM
      1 N1         -3.0517    1.1241   -2.0299 N.am      1 UNK         0.0000 
      2 O2         -5.8612   -0.4127   -2.9586 O.2       1 UNK         0.0000 
      3 C3         -1.8517   -1.7711   -5.9222 C.ar      1 UNK         0.0000 
      4 N4         -0.0349    0.4704   -0.1290 N.am      1 UNK         0.0000 
      5 O5          1.9402   -0.1864   -1.0372 O.2       1 UNK         0.0000 
      6 C6         -1.5175   -2.8446   -5.0950 C.ar      1 UNK         0.0000 
      7 N7          1.0696    0.7675    2.3473 N.am      1 UNK         0.0000 
      8 O8         -2.4586    1.3683    0.1543 O.2       1 UNK         0.0000 
      9 C9         -1.8955   -0.5028   -5.3603 C.ar      1 UNK         0.0000 
     10 O10         1.6962    2.8847    1.7928 O.2       1 UNK         0.0000 
     11 C11        -1.2353   -2.6003   -3.7587 C.ar      1 UNK         0.0000 
     12 O12        -2.6020   -4.1119    1.1575 O.3       1 UNK         0.0000 
     13 C13         0.8084   -2.9332    0.5260 C.ar      1 UNK         0.0000 
     14 C14         0.1956   -2.3585    2.7786 C.ar      1 UNK         0.0000 
     15 C15        -4.2725   -0.9942    0.1963 C.ar      1 UNK         0.0000 
     16 C16        -4.3472   -2.5396   -1.6624 C.ar      1 UNK         0.0000 
     17 C17        -0.3928   -3.6156    0.3674 C.ar      1 UNK         0.0000 
     18 C18        -1.0178   -3.0333    2.6308 C.ar      1 UNK         0.0000 
     19 C19        -3.6683   -1.9647    0.9831 C.ar      1 UNK         0.0000 
     20 C20        -3.7151   -3.5113   -0.8873 C.ar      1 UNK         0.0000 
     21 C21         2.2760   -1.3060    1.7589 C.3       1 UNK         0.0000 
     22 C22        -4.4902    1.2173   -1.8537 C.3       1 UNK         0.0000 
     23 C23        -0.9762   -1.0333   -1.8182 C.3       1 UNK         0.0000 
     24 C24         1.0922   -2.2421    1.7097 C.ar      1 UNK         0.0000 
     25 C25        -1.2992   -1.2867   -3.2743 C.ar      1 UNK         0.0000 
     26 C26        -4.5886   -1.2632   -1.1409 C.ar      1 UNK         0.0000 
     27 C27        -1.3240   -3.6035    1.4006 C.ar      1 UNK         0.0000 
     28 C28        -3.3473   -3.1997    0.4205 C.ar      1 UNK         0.0000 
     29 C29        -5.0938   -0.1831   -2.0430 C.2       1 UNK         0.0000 
     30 C30         1.2643    0.1379   -0.0588 C.2       1 UNK         0.0000 
     31 C31        -2.1850    1.0458   -1.0008 C.2       1 UNK         0.0000 
     32 C32         1.0602    2.1212    2.5023 C.2       1 UNK         0.0000 
     33 C33         1.8987    0.1370    1.3431 C.3       1 UNK         0.0000 
     34 C34        -0.8169    0.4298   -1.3502 C.3       1 UNK         0.0000 
     35 H35         2.8198    0.7196    1.2502 H         1 UNK         0.0000 
     36 H36        -0.3256    1.0188   -2.1335 H         1 UNK         0.0000 
     37 H37        -2.0771   -1.9130   -6.9727 H         1 UNK         0.0000 
     38 H38        -1.4755   -3.8548   -5.4893 H         1 UNK         0.0000 
     39 H39        -2.1599    0.3635   -5.9605 H         1 UNK         0.0000 
     40 H40        -0.9664   -3.4108   -3.0881 H         1 UNK         0.0000 
     41 H41         1.5179   -2.8941   -0.2968 H         1 UNK         0.0000 
     42 H42         0.4307   -1.9020    3.7376 H         1 UNK         0.0000 
     43 H43        -4.4687   -0.0183    0.6254 H         1 UNK         0.0000 
     44 H44        -4.5991   -2.7471   -2.6983 H         1 UNK         0.0000 
     45 H45        -0.6404   -4.1097   -0.5674 H         1 UNK         0.0000 
     46 H46        -1.7364   -3.0797    3.4427 H         1 UNK         0.0000 
     47 H47        -3.3987   -1.7519    2.0118 H         1 UNK         0.0000 
     48 H48        -3.4618   -4.4831   -1.2983 H         1 UNK         0.0000 
     49 H49         2.7098   -1.2592    2.7622 H         1 UNK         0.0000 
     50 H50         3.0518   -1.6495    1.0704 H         1 UNK         0.0000 
     51 H51        -4.6971    1.6122   -0.8562 H         1 UNK         0.0000 
     52 H52        -4.9269    1.8814   -2.6007 H         1 UNK         0.0000 
     53 H53        -1.7253   -1.5308   -1.1862 H         1 UNK         0.0000 
     54 H54        -0.0250   -1.5304   -1.6126 H         1 UNK         0.0000 
     55 H55        -2.6902    0.8386   -2.9445 H         1 UNK         0.0000 
     56 H56        -0.5403    0.7232    0.7134 H         1 UNK         0.0000 
     57 H57         0.5093    0.2122    2.9800 H         1 UNK         0.0000 
     58 O58         0.2603    2.4668    3.5206 O.3       1 UNK         0.0000 
     59 C59         0.0190    3.8741    3.8472 C.3       1 UNK         0.0000 
     60 C60        -0.6325    4.5802    2.6621 C.3       1 UNK         0.0000 
     61 H61        -0.9472    5.5803    2.9737 H         1 UNK         0.0000 
     62 H62         0.0597    4.6748    1.8247 H         1 UNK         0.0000 
     63 H63        -1.5189    4.0274    2.3365 H         1 UNK         0.0000 
     64 C64        -0.9535    3.7832    5.0171 C.3       1 UNK         0.0000 
     65 H65        -1.8695    3.2688    4.7136 H         1 UNK         0.0000 
     66 H66        -0.5004    3.2369    5.8491 H         1 UNK         0.0000 
     67 H67        -1.2131    4.7885    5.3586 H         1 UNK         0.0000 
     68 C68         1.3200    4.5414    4.2821 C.3       1 UNK         0.0000 
     69 H69         1.7884    3.9642    5.0850 H         1 UNK         0.0000 
     70 H70         2.0181    4.6316    3.4493 H         1 UNK         0.0000 
     71 H71         1.0959    5.5414    4.6645 H         1 UNK         0.0000 
     72 N72        -1.6271   -0.2620   -4.0679 N.ar      1 UNK         0.0000 
@<TRIPOS>BOND
     1    1   22 1    
     2    1   31 am   BACKBONE|DICT|INTERRES
     3    1   55 1    
     4    2   29 2    
     5    3    9 ar   
     6    3    6 ar   
     7    3   37 1    
     8    4   56 1    
     9    4   30 am   BACKBONE|DICT|INTERRES
    10    4   34 1    
    11    5   30 2    
    12    6   11 ar   
    13    6   38 1    
    14    7   57 1    
    15    7   32 am   BACKBONE|DICT|INTERRES
    16    7   33 1    
    17    8   31 2    
    18    9   72 ar   
    19    9   39 1    
    20   10   32 2    
    21   11   25 ar   
    22   11   40 1    
    23   12   27 1    
    24   12   28 1    
    25   13   24 ar   
    26   13   17 ar   
    27   13   41 1    
    28   14   42 1    
    29   14   18 ar   
    30   14   24 ar   
    31   15   19 ar   
    32   15   43 1    
    33   15   26 ar   
    34   16   20 ar   
    35   16   26 ar   
    36   16   44 1    
    37   17   27 ar   
    38   17   45 1    
    39   18   46 1    
    40   18   27 ar   
    41   19   47 1    
    42   19   28 ar   
    43   20   28 ar   
    44   20   48 1    
    45   21   49 1    
    46   21   24 1    
    47   21   33 1    
    48   21   50 1    
    49   22   29 1    
    50   22   51 1    
    51   22   52 1    
    52   23   53 1    
    53   23   25 1    
    54   23   34 1    
    55   23   54 1    
    56   25   72 ar   
    57   26   29 1    
    58   30   33 1    
    59   31   34 1    
    60   32   58 1    
    61   33   35 1    
    62   34   36 1    
    63   58   59 1    
    64   59   64 1    
    65   59   60 1    
    66   59   68 1    
    67   60   61 1    
    68   60   63 1    
    69   60   62 1    
    70   64   67 1    
    71   64   66 1    
    72   64   65 1    
    73   68   71 1    
    74   68   69 1    
    75   68   70 1    
@<TRIPOS>SUBSTRUCTURE
     1 UNK         1 GROUP             0       ****    0 ROOT    
@<TRIPOS>MOLECULE
Cpd5-4
72   75    1
SMALL
USER_CHARGES


@<TRIPOS>ATOM
      1 N1         -3.1135    1.2698   -1.4560 N.am      1 UNK         0.0000 
      2 O2         -6.4242    0.2952   -1.4006 O.2       1 UNK         0.0000 
      3 C3          2.7772    4.4531    0.9536 C.ar      1 UNK         0.0000 
      4 N4          0.3031    0.4954   -0.7938 N.am      1 UNK         0.0000 
      5 O5          0.8981    0.9975    1.3436 O.2       1 UNK         0.0000 
      6 C6          3.1734    3.6598   -0.1195 C.ar      1 UNK         0.0000 
      7 N7          3.4518    0.0113   -0.0619 N.am      1 UNK         0.0000 
      8 O8         -1.5652    0.2560   -2.7809 O.2       1 UNK         0.0000 
      9 C9          1.4151    4.6961    1.1265 C.ar      1 UNK         0.0000 
     10 O10         3.1842    0.0157   -2.3251 O.2       1 UNK         0.0000 
     11 C11         2.1942    3.1435   -0.9624 C.ar      1 UNK         0.0000 
     12 O12        -2.7208   -4.0935    1.4265 O.3       1 UNK         0.0000 
     13 C13         0.8858   -3.5586    1.0034 C.ar      1 UNK         0.0000 
     14 C14        -0.0228   -1.8166    2.3953 C.ar      1 UNK         0.0000 
     15 C15        -3.5074   -1.8010   -1.3154 C.ar      1 UNK         0.0000 
     16 C16        -5.2684   -1.7016    0.3405 C.ar      1 UNK         0.0000 
     17 C17        -0.3519   -4.2036    0.9823 C.ar      1 UNK         0.0000 
     18 C18        -1.2631   -2.4447    2.3777 C.ar      1 UNK         0.0000 
     19 C19        -2.8941   -2.8192   -0.6051 C.ar      1 UNK         0.0000 
     20 C20        -4.6448   -2.7079    1.0752 C.ar      1 UNK         0.0000 
     21 C21         2.3114   -1.5271    1.4762 C.3       1 UNK         0.0000 
     22 C22        -4.2810    0.9188   -2.2454 C.3       1 UNK         0.0000 
     23 C23        -0.2401    2.8098   -1.5291 C.3       1 UNK         0.0000 
     24 C24         1.0513   -2.3368    1.6639 C.ar      1 UNK         0.0000 
     25 C25         0.8519    3.4247   -0.6959 C.ar      1 UNK         0.0000 
     26 C26        -4.6787   -1.2085   -0.8286 C.ar      1 UNK         0.0000 
     27 C27        -1.4272   -3.6039    1.6247 C.ar      1 UNK         0.0000 
     28 C28        -3.4332   -3.2212    0.6192 C.ar      1 UNK         0.0000 
     29 C29        -5.2465   -0.0024   -1.4869 C.2       1 UNK         0.0000 
     30 C30         1.0652    0.3492    0.3142 C.2       1 UNK         0.0000 
     31 C31        -1.8505    0.9309   -1.7942 C.2       1 UNK         0.0000 
     32 C32         3.8124    0.3469   -1.3289 C.2       1 UNK         0.0000 
     33 C33         2.2033   -0.6817    0.1985 C.3       1 UNK         0.0000 
     34 C34        -0.7472    1.4906   -0.8967 C.3       1 UNK         0.0000 
     35 H35         2.0189   -1.3384   -0.6567 H         1 UNK         0.0000 
     36 H36        -1.1152    1.6893    0.1138 H         1 UNK         0.0000 
     37 H37         3.4993    4.8804    1.6403 H         1 UNK         0.0000 
     38 H38         4.2224    3.4382   -0.2960 H         1 UNK         0.0000 
     39 H39         1.0707    5.3215    1.9463 H         1 UNK         0.0000 
     40 H40         2.4501    2.5227   -1.8165 H         1 UNK         0.0000 
     41 H41         1.7198   -3.9897    0.4554 H         1 UNK         0.0000 
     42 H42         0.1013   -0.8817    2.9330 H         1 UNK         0.0000 
     43 H43        -3.0506   -1.4531   -2.2366 H         1 UNK         0.0000 
     44 H44        -6.1841   -1.2463    0.7052 H         1 UNK         0.0000 
     45 H45        -0.5023   -5.1187    0.4184 H         1 UNK         0.0000 
     46 H46        -2.1189   -2.0117    2.8872 H         1 UNK         0.0000 
     47 H47        -1.9671   -3.2569   -0.9591 H         1 UNK         0.0000 
     48 H48        -5.0487   -3.0504    2.0219 H         1 UNK         0.0000 
     49 H49         2.4719   -0.8610    2.3298 H         1 UNK         0.0000 
     50 H50         3.1848   -2.1774    1.3730 H         1 UNK         0.0000 
     51 H51        -3.9294    0.4248   -3.1560 H         1 UNK         0.0000 
     52 H52        -4.8377    1.8153   -2.5254 H         1 UNK         0.0000 
     53 H53        -1.0786    3.5085   -1.6053 H         1 UNK         0.0000 
     54 H54         0.1235    2.5869   -2.5376 H         1 UNK         0.0000 
     55 H55        -3.2559    1.8283   -0.6242 H         1 UNK         0.0000 
     56 H56         0.5500   -0.0075   -1.6398 H         1 UNK         0.0000 
     57 H57         3.9530    0.4411    0.7052 H         1 UNK         0.0000 
     58 O58         4.9364    1.0792   -1.3166 O.3       1 UNK         0.0000 
     59 C59         5.6445    1.4088   -2.5573 C.3       1 UNK         0.0000 
     60 C60         4.8006    2.3447   -3.4163 C.3       1 UNK         0.0000 
     61 H61         5.3864    2.6486   -4.2887 H         1 UNK         0.0000 
     62 H62         3.8887    1.8546   -3.7610 H         1 UNK         0.0000 
     63 H63         4.5392    3.2468   -2.8540 H         1 UNK         0.0000 
     64 C64         6.8891    2.1267   -2.0491 C.3       1 UNK         0.0000 
     65 H65         6.6112    3.0111   -1.4685 H         1 UNK         0.0000 
     66 H66         7.4828    1.4615   -1.4161 H         1 UNK         0.0000 
     67 H67         7.5018    2.4449   -2.8964 H         1 UNK         0.0000 
     68 C68         6.0271    0.1302   -3.2961 C.3       1 UNK         0.0000 
     69 H69         6.5531   -0.5511   -2.6206 H         1 UNK         0.0000 
     70 H70         5.1501   -0.3731   -3.7047 H         1 UNK         0.0000 
     71 H71         6.7012    0.3848   -4.1189 H         1 UNK         0.0000 
     72 N72         0.4666    4.1967    0.3287 N.ar      1 UNK         0.0000 
@<TRIPOS>BOND
     1    1   55 1    
     2    1   22 1    
     3    1   31 am   BACKBONE|DICT|INTERRES
     4    2   29 2    
     5    3    9 ar   
     6    3   37 1    
     7    3    6 ar   
     8    4   34 1    
     9    4   30 am   BACKBONE|DICT|INTERRES
    10    4   56 1    
    11    5   30 2    
    12    6   11 ar   
    13    6   38 1    
    14    7   57 1    
    15    7   32 am   BACKBONE|DICT|INTERRES
    16    7   33 1    
    17    8   31 2    
    18    9   39 1    
    19    9   72 ar   
    20   10   32 2    
    21   11   25 ar   
    22   11   40 1    
    23   12   27 1    
    24   12   28 1    
    25   13   24 ar   
    26   13   17 ar   
    27   13   41 1    
    28   14   42 1    
    29   14   18 ar   
    30   14   24 ar   
    31   15   19 ar   
    32   15   26 ar   
    33   15   43 1    
    34   16   20 ar   
    35   16   44 1    
    36   16   26 ar   
    37   17   27 ar   
    38   17   45 1    
    39   18   46 1    
    40   18   27 ar   
    41   19   28 ar   
    42   19   47 1    
    43   20   48 1    
    44   20   28 ar   
    45   21   49 1    
    46   21   24 1    
    47   21   33 1    
    48   21   50 1    
    49   22   52 1    
    50   22   29 1    
    51   22   51 1    
    52   23   34 1    
    53   23   53 1    
    54   23   25 1    
    55   23   54 1    
    56   25   72 ar   
    57   26   29 1    
    58   30   33 1    
    59   31   34 1    
    60   32   58 1    
    61   33   35 1    
    62   34   36 1    
    63   58   59 1    
    64   59   64 1    
    65   59   60 1    
    66   59   68 1    
    67   60   63 1    
    68   60   61 1    
    69   60   62 1    
    70   64   66 1    
    71   64   65 1    
    72   64   67 1    
    73   68   69 1    
    74   68   70 1    
    75   68   71 1    
@<TRIPOS>SUBSTRUCTURE
     1 UNK         1 GROUP             0       ****    0 ROOT    
@<TRIPOS>MOLECULE
Cpd5-5
72   75    1
SMALL
USER_CHARGES


@<TRIPOS>ATOM
      1 N1         -2.3979    0.9236   -1.5924 N.am      1 UNK         0.0000 
      2 O2         -5.7188    0.5562   -0.7894 O.2       1 UNK         0.0000 
      3 C3          4.4870    3.6073   -1.1632 C.ar      1 UNK         0.0000 
      4 N4          0.0831    1.5123   -0.4397 N.am      1 UNK         0.0000 
      5 O5          0.6629   -0.6553   -0.8175 O.2       1 UNK         0.0000 
      6 C6          3.7212    4.2754   -2.1153 C.ar      1 UNK         0.0000 
      7 N7          0.0978    0.8355    2.2937 N.am      1 UNK         0.0000 
      8 O8         -1.6442    1.5156   -3.6404 O.2       1 UNK         0.0000 
      9 C9          4.1000    2.3207   -0.7959 C.ar      1 UNK         0.0000 
     10 O10        -1.8013    0.0435    1.2859 O.2       1 UNK         0.0000 
     11 C11         2.6101    3.6322   -2.6507 C.ar      1 UNK         0.0000 
     12 O12        -2.5826   -4.6247    1.1680 O.3       1 UNK         0.0000 
     13 C13         0.7698   -3.2040    0.8746 C.ar      1 UNK         0.0000 
     14 C14        -0.3026   -2.2948    2.8237 C.ar      1 UNK         0.0000 
     15 C15        -3.2978   -2.0608   -1.3358 C.ar      1 UNK         0.0000 
     16 C16        -4.8244   -1.8046    0.5251 C.ar      1 UNK         0.0000 
     17 C17        -0.2659   -4.1195    0.7158 C.ar      1 UNK         0.0000 
     18 C18        -1.3621   -3.1853    2.6609 C.ar      1 UNK         0.0000 
     19 C19        -2.8221   -3.2389   -0.7827 C.ar      1 UNK         0.0000 
     20 C20        -4.3273   -2.9688    1.1041 C.ar      1 UNK         0.0000 
     21 C21         1.6880   -1.0702    1.8473 C.3       1 UNK         0.0000 
     22 C22        -3.7527    0.7686   -2.1049 C.3       1 UNK         0.0000 
     23 C23         1.0696    1.6307   -2.7382 C.3       1 UNK         0.0000 
     24 C24         0.7189   -2.2235    1.8706 C.ar      1 UNK         0.0000 
     25 C25         2.2960    2.3382   -2.2205 C.ar      1 UNK         0.0000 
     26 C26        -4.2726   -1.3135   -0.6627 C.ar      1 UNK         0.0000 
     27 C27        -1.3713   -4.0260    1.5544 C.ar      1 UNK         0.0000 
     28 C28        -3.2817   -3.6378    0.4739 C.ar      1 UNK         0.0000 
     29 C29        -4.6782    0.0302   -1.1465 C.2       1 UNK         0.0000 
     30 C30         0.5758    0.3010   -0.0626 C.2       1 UNK         0.0000 
     31 C31        -1.4485    1.3869   -2.4317 C.2       1 UNK         0.0000 
     32 C32        -1.2443    0.6196    2.2104 C.2       1 UNK         0.0000 
     33 C33         1.0906    0.2771    1.3867 C.3       1 UNK         0.0000 
     34 C34        -0.1379    1.9002   -1.8190 C.3       1 UNK         0.0000 
     35 H35         1.9250    0.9904    1.3824 H         1 UNK         0.0000 
     36 H36        -0.2903    2.9865   -1.7937 H         1 UNK         0.0000 
     37 H37         5.3631    4.0641   -0.7168 H         1 UNK         0.0000 
     38 H38         3.9857    5.2779   -2.4369 H         1 UNK         0.0000 
     39 H39         4.6743    1.7649   -0.0582 H         1 UNK         0.0000 
     40 H40         1.9888    4.1187   -3.3964 H         1 UNK         0.0000 
     41 H41         1.5883   -3.1966    0.1613 H         1 UNK         0.0000 
     42 H42        -0.3180   -1.5962    3.6574 H         1 UNK         0.0000 
     43 H43        -2.8824   -1.7117   -2.2759 H         1 UNK         0.0000 
     44 H44        -5.5920   -1.2255    1.0305 H         1 UNK         0.0000 
     45 H45        -0.2676   -4.8268   -0.1071 H         1 UNK         0.0000 
     46 H46        -2.2180   -3.1673    3.3289 H         1 UNK         0.0000 
     47 H47        -2.0389   -3.8022   -1.2757 H         1 UNK         0.0000 
     48 H48        -4.6785   -3.3122    2.0720 H         1 UNK         0.0000 
     49 H49         2.1061   -0.8936    2.8447 H         1 UNK         0.0000 
     50 H50         2.5243   -1.2986    1.1797 H         1 UNK         0.0000 
     51 H51        -3.7124    0.2255   -3.0567 H         1 UNK         0.0000 
     52 H52        -4.2033    1.7455   -2.3038 H         1 UNK         0.0000 
     53 H53         0.8087    1.9955   -3.7334 H         1 UNK         0.0000 
     54 H54         1.2560    0.5570   -2.7909 H         1 UNK         0.0000 
     55 H55        -2.1871    0.8033   -0.6017 H         1 UNK         0.0000 
     56 H56         0.1109    2.2522    0.2492 H         1 UNK         0.0000 
     57 H57         0.4284    1.2833    3.1381 H         1 UNK         0.0000 
     58 O58        -1.8549    1.1645    3.2726 O.3       1 UNK         0.0000 
     59 C59        -3.2970    1.0110    3.4786 C.3       1 UNK         0.0000 
     60 C60        -3.5456    1.8236    4.7430 C.3       1 UNK         0.0000 
     61 H61        -4.5993    1.7503    5.0242 H         1 UNK         0.0000 
     62 H62        -2.9357    1.4438    5.5673 H         1 UNK         0.0000 
     63 H63        -3.2999    2.8764    4.5767 H         1 UNK         0.0000 
     64 C64        -4.0790    1.5953    2.3053 C.3       1 UNK         0.0000 
     65 H65        -3.7170    2.6014    2.0714 H         1 UNK         0.0000 
     66 H66        -3.9945    0.9668    1.4188 H         1 UNK         0.0000 
     67 H67        -5.1348    1.6656    2.5836 H         1 UNK         0.0000 
     68 C68        -3.6089   -0.4632    3.7040 C.3       1 UNK         0.0000 
     69 H69        -3.3594   -1.0462    2.8156 H         1 UNK         0.0000 
     70 H70        -3.0418   -0.8434    4.5600 H         1 UNK         0.0000 
     71 H71        -4.6764   -0.5827    3.9136 H         1 UNK         0.0000 
     72 N72         3.0337    1.6929   -1.3038 N.ar      1 UNK         0.0000 
@<TRIPOS>BOND
     1    1   55 1    
     2    1   22 1    
     3    1   31 am   BACKBONE|DICT|INTERRES
     4    2   29 2    
     5    3   37 1    
     6    3    6 ar   
     7    3    9 ar   
     8    4   56 1    
     9    4   30 am   BACKBONE|DICT|INTERRES
    10    4   34 1    
    11    5   30 2    
    12    6   38 1    
    13    6   11 ar   
    14    7   57 1    
    15    7   32 am   BACKBONE|DICT|INTERRES
    16    7   33 1    
    17    8   31 2    
    18    9   39 1    
    19    9   72 ar   
    20   10   32 2    
    21   11   25 ar   
    22   11   40 1    
    23   12   28 1    
    24   12   27 1    
    25   13   24 ar   
    26   13   17 ar   
    27   13   41 1    
    28   14   42 1    
    29   14   18 ar   
    30   14   24 ar   
    31   15   26 ar   
    32   15   19 ar   
    33   15   43 1    
    34   16   44 1    
    35   16   20 ar   
    36   16   26 ar   
    37   17   27 ar   
    38   17   45 1    
    39   18   46 1    
    40   18   27 ar   
    41   19   28 ar   
    42   19   47 1    
    43   20   48 1    
    44   20   28 ar   
    45   21   49 1    
    46   21   33 1    
    47   21   24 1    
    48   21   50 1    
    49   22   29 1    
    50   22   52 1    
    51   22   51 1    
    52   23   25 1    
    53   23   34 1    
    54   23   53 1    
    55   23   54 1    
    56   25   72 ar   
    57   26   29 1    
    58   30   33 1    
    59   31   34 1    
    60   32   58 1    
    61   33   35 1    
    62   34   36 1    
    63   58   59 1    
    64   59   60 1    
    65   59   64 1    
    66   59   68 1    
    67   60   62 1    
    68   60   61 1    
    69   60   63 1    
    70   64   67 1    
    71   64   65 1    
    72   64   66 1    
    73   68   71 1    
    74   68   70 1    
    75   68   69 1    
@<TRIPOS>SUBSTRUCTURE
     1 UNK         1 GROUP             0       ****    0 ROOT    
@<TRIPOS>MOLECULE
Cpd5-6
72   75    1
SMALL
USER_CHARGES


@<TRIPOS>ATOM
      1 N1         -2.8757    0.9798   -1.0364 N.am      1 UNK         0.0000 
      2 O2         -5.6823   -0.3157   -2.7359 O.2       1 UNK         0.0000 
      3 C3         -2.6140   -0.8228   -6.0283 C.ar      1 UNK         0.0000 
      4 N4         -0.1285    0.6084   -0.3059 N.am      1 UNK         0.0000 
      5 O5          1.9321   -0.2092   -0.7837 O.2       1 UNK         0.0000 
      6 C6         -1.2275   -0.9296   -5.9935 C.ar      1 UNK         0.0000 
      7 N7          0.3558    0.6253    2.3645 N.am      1 UNK         0.0000 
      8 O8         -2.0116    2.2160   -2.7510 O.2       1 UNK         0.0000 
      9 C9         -3.2996   -0.7364   -4.8176 C.ar      1 UNK         0.0000 
     10 O10         1.3516    2.5512    3.0983 O.2       1 UNK         0.0000 
     11 C11        -0.5851   -0.9465   -4.7588 C.ar      1 UNK         0.0000 
     12 O12        -2.6298   -4.3318    1.2617 O.3       1 UNK         0.0000 
     13 C13         0.6331   -2.8027    0.5954 C.ar      1 UNK         0.0000 
     14 C14         0.1132   -2.5504    2.9302 C.ar      1 UNK         0.0000 
     15 C15        -4.2999   -2.6212   -1.5146 C.ar      1 UNK         0.0000 
     16 C16        -4.3465   -1.2095    0.4450 C.ar      1 UNK         0.0000 
     17 C17        -0.5143   -3.5651    0.4194 C.ar      1 UNK         0.0000 
     18 C18        -1.0432   -3.3176    2.7662 C.ar      1 UNK         0.0000 
     19 C19        -3.7191   -3.6443   -0.7679 C.ar      1 UNK         0.0000 
     20 C20        -3.7845   -2.2291    1.2010 C.ar      1 UNK         0.0000 
     21 C21         2.0109   -1.1841    1.9485 C.3       1 UNK         0.0000 
     22 C22        -4.2684    1.1277   -1.4430 C.3       1 UNK         0.0000 
     23 C23        -0.7239   -0.8251   -2.2289 C.3       1 UNK         0.0000 
     24 C24         0.9308   -2.2322    1.8407 C.ar      1 UNK         0.0000 
     25 C25        -1.3549   -0.8589   -3.5978 C.ar      1 UNK         0.0000 
     26 C26        -4.5602   -1.3813   -0.9280 C.ar      1 UNK         0.0000 
     27 C27        -1.3764   -3.7655    1.4950 C.ar      1 UNK         0.0000 
     28 C28        -3.4091   -3.4147    0.5697 C.ar      1 UNK         0.0000 
     29 C29        -4.9219   -0.2169   -1.7978 C.2       1 UNK         0.0000 
     30 C30         1.1150    0.1903    0.0364 C.2       1 UNK         0.0000 
     31 C31        -1.8723    1.3785   -1.8815 C.2       1 UNK         0.0000 
     32 C32         0.4598    1.7311    3.1738 C.2       1 UNK         0.0000 
     33 C33         1.4646    0.2054    1.5316 C.3       1 UNK         0.0000 
     34 C34        -0.5526    0.6239   -1.7007 C.3       1 UNK         0.0000 
     35 H35         2.2547    0.9525    1.6558 H         1 UNK         0.0000 
     36 H36         0.1951    1.1447   -2.3059 H         1 UNK         0.0000 
     37 H37        -3.1568   -0.8036   -6.9668 H         1 UNK         0.0000 
     38 H38        -0.6536   -0.9972   -6.9126 H         1 UNK         0.0000 
     39 H39        -4.3839   -0.6428   -4.7880 H         1 UNK         0.0000 
     40 H40         0.4954   -1.0246   -4.6874 H         1 UNK         0.0000 
     41 H41         1.2847   -2.5999   -0.2502 H         1 UNK         0.0000 
     42 H42         0.3602   -2.1638    3.9167 H         1 UNK         0.0000 
     43 H43        -4.4804   -2.7436   -2.5779 H         1 UNK         0.0000 
     44 H44        -4.5863   -0.2621    0.9228 H         1 UNK         0.0000 
     45 H45        -0.7798   -3.9579   -0.5578 H         1 UNK         0.0000 
     46 H46        -1.7087   -3.5241    3.5985 H         1 UNK         0.0000 
     47 H47        -3.4385   -4.5890   -1.2223 H         1 UNK         0.0000 
     48 H48        -3.5730   -2.0941    2.2566 H         1 UNK         0.0000 
     49 H49         2.3825   -1.1065    2.9747 H         1 UNK         0.0000 
     50 H50         2.8507   -1.4185    1.2900 H         1 UNK         0.0000 
     51 H51        -4.8561    1.6102   -0.6516 H         1 UNK         0.0000 
     52 H52        -4.2992    1.7630   -2.3293 H         1 UNK         0.0000 
     53 H53        -1.3635   -1.3793   -1.5295 H         1 UNK         0.0000 
     54 H54         0.2646   -1.2907   -2.2360 H         1 UNK         0.0000 
     55 H55        -2.6703    0.1482   -0.4952 H         1 UNK         0.0000 
     56 H56        -0.6955    1.0393    0.4130 H         1 UNK         0.0000 
     57 H57        -0.3208   -0.0740    2.6487 H         1 UNK         0.0000 
     58 O58        -0.5805    1.7632    4.0222 O.3       1 UNK         0.0000 
     59 C59        -0.7406    2.8754    4.9590 C.3       1 UNK         0.0000 
     60 C60        -0.9063    4.1845    4.1929 C.3       1 UNK         0.0000 
     61 H61        -1.1716    4.9790    4.8967 H         1 UNK         0.0000 
     62 H62         0.0140    4.4630    3.6784 H         1 UNK         0.0000 
     63 H63        -1.7155    4.0928    3.4618 H         1 UNK         0.0000 
     64 C64        -2.0276    2.5133    5.6905 C.3       1 UNK         0.0000 
     65 H65        -2.8616    2.4455    4.9865 H         1 UNK         0.0000 
     66 H66        -1.9201    1.5522    6.2009 H         1 UNK         0.0000 
     67 H67        -2.2596    3.2800    6.4343 H         1 UNK         0.0000 
     68 C68         0.4369    2.9157    5.9287 C.3       1 UNK         0.0000 
     69 H69         0.5619    1.9404    6.4089 H         1 UNK         0.0000 
     70 H70         1.3616    3.1872    5.4186 H         1 UNK         0.0000 
     71 H71         0.2326    3.6558    6.7081 H         1 UNK         0.0000 
     72 N72        -2.6912   -0.7565   -3.6310 N.ar      1 UNK         0.0000 
@<TRIPOS>BOND
     1    1   22 1    
     2    1   31 am   BACKBONE|DICT|INTERRES
     3    1   55 1    
     4    2   29 2    
     5    3   37 1    
     6    3    9 ar   
     7    3    6 ar   
     8    4   56 1    
     9    4   30 am   BACKBONE|DICT|INTERRES
    10    4   34 1    
    11    5   30 2    
    12    6   11 ar   
    13    6   38 1    
    14    7   32 am   BACKBONE|DICT|INTERRES
    15    7   57 1    
    16    7   33 1    
    17    8   31 2    
    18    9   39 1    
    19    9   72 ar   
    20   10   32 2    
    21   11   25 ar   
    22   11   40 1    
    23   12   28 1    
    24   12   27 1    
    25   13   24 ar   
    26   13   17 ar   
    27   13   41 1    
    28   14   42 1    
    29   14   18 ar   
    30   14   24 ar   
    31   15   26 ar   
    32   15   19 ar   
    33   15   43 1    
    34   16   44 1    
    35   16   20 ar   
    36   16   26 ar   
    37   17   27 ar   
    38   17   45 1    
    39   18   46 1    
    40   18   27 ar   
    41   19   28 ar   
    42   19   47 1    
    43   20   48 1    
    44   20   28 ar   
    45   21   33 1    
    46   21   24 1    
    47   21   49 1    
    48   21   50 1    
    49   22   29 1    
    50   22   51 1    
    51   22   52 1    
    52   23   25 1    
    53   23   34 1    
    54   23   53 1    
    55   23   54 1    
    56   25   72 ar   
    57   26   29 1    
    58   30   33 1    
    59   31   34 1    
    60   32   58 1    
    61   33   35 1    
    62   34   36 1    
    63   58   59 1    
    64   59   60 1    
    65   59   64 1    
    66   59   68 1    
    67   60   63 1    
    68   60   61 1    
    69   60   62 1    
    70   64   65 1    
    71   64   67 1    
    72   64   66 1    
    73   68   71 1    
    74   68   69 1    
    75   68   70 1    
@<TRIPOS>SUBSTRUCTURE
     1 UNK         1 GROUP             0       ****    0 ROOT    
@<TRIPOS>MOLECULE
Cpd5-7
72   75    1
SMALL
USER_CHARGES


@<TRIPOS>ATOM
      1 N1         -3.0032    1.2671   -1.9227 N.am      1 UNK         0.0000 
      2 O2         -6.0283    0.5917   -1.2845 O.2       1 UNK         0.0000 
      3 C3         -2.0061    4.3202   -5.0226 C.ar      1 UNK         0.0000 
      4 N4         -0.1467    1.0972    0.1508 N.am      1 UNK         0.0000 
      5 O5          1.7595    0.1499   -0.7028 O.2       1 UNK         0.0000 
      6 C6         -1.3087    3.1877   -5.4314 C.ar      1 UNK         0.0000 
      7 N7          0.5729    0.5429    2.7009 N.am      1 UNK         0.0000 
      8 O8         -1.4783   -0.4161   -2.0296 O.2       1 UNK         0.0000 
      9 C9         -1.9250    4.6942   -3.6818 C.ar      1 UNK         0.0000 
     10 O10         1.6521    2.4063    3.4710 O.2       1 UNK         0.0000 
     11 C11        -0.5659    2.4809   -4.4887 C.ar      1 UNK         0.0000 
     12 O12        -2.5895   -4.3193    1.0216 O.3       1 UNK         0.0000 
     13 C13         0.6454   -2.7016    0.3969 C.ar      1 UNK         0.0000 
     14 C14         0.1809   -2.6423    2.7571 C.ar      1 UNK         0.0000 
     15 C15        -4.5897   -1.3064    0.4491 C.ar      1 UNK         0.0000 
     16 C16        -4.0583   -2.3375   -1.6765 C.ar      1 UNK         0.0000 
     17 C17        -0.4997   -3.4584    0.1856 C.ar      1 UNK         0.0000 
     18 C18        -0.9842   -3.3874    2.5561 C.ar      1 UNK         0.0000 
     19 C19        -3.9734   -2.3594    1.1166 C.ar      1 UNK         0.0000 
     20 C20        -3.4942   -3.4224   -1.0148 C.ar      1 UNK         0.0000 
     21 C21         2.0806   -1.2278    1.8432 C.3       1 UNK         0.0000 
     22 C22        -4.0654    0.5907   -2.6528 C.3       1 UNK         0.0000 
     23 C23         0.2069    2.1760   -2.0965 C.3       1 UNK         0.0000 
     24 C24         0.9748   -2.2392    1.6773 C.ar      1 UNK         0.0000 
     25 C25        -0.5446    2.9313   -3.1670 C.ar      1 UNK         0.0000 
     26 C26        -4.5806   -1.2640   -0.9490 C.ar      1 UNK         0.0000 
     27 C27        -1.3376   -3.7445    1.2616 C.ar      1 UNK         0.0000 
     28 C28        -3.3889   -3.3826    0.3727 C.ar      1 UNK         0.0000 
     29 C29        -5.0280   -0.0117   -1.6244 C.2       1 UNK         0.0000 
     30 C30         1.0485    0.4725    0.2446 C.2       1 UNK         0.0000 
     31 C31        -1.7844    0.7191   -1.6870 C.2       1 UNK         0.0000 
     32 C32         0.7640    1.5767    3.5750 C.2       1 UNK         0.0000 
     33 C33         1.5488    0.2147    1.6833 C.3       1 UNK         0.0000 
     34 C34        -0.7797    1.6780   -1.0251 C.3       1 UNK         0.0000 
     35 H35         2.3849    0.9087    1.8177 H         1 UNK         0.0000 
     36 H36        -1.3217    2.5570   -0.6641 H         1 UNK         0.0000 
     37 H37        -2.5999    4.9029   -5.7175 H         1 UNK         0.0000 
     38 H38        -1.3433    2.8573   -6.4647 H         1 UNK         0.0000 
     39 H39        -2.4548    5.5737   -3.3244 H         1 UNK         0.0000 
     40 H40        -0.0125    1.5895   -4.7653 H         1 UNK         0.0000 
     41 H41         1.2710   -2.4249   -0.4468 H         1 UNK         0.0000 
     42 H42         0.4518   -2.3428    3.7671 H         1 UNK         0.0000 
     43 H43        -5.0190   -0.4789    1.0059 H         1 UNK         0.0000 
     44 H44        -4.0651   -2.3234   -2.7618 H         1 UNK         0.0000 
     45 H45        -0.7749   -3.7754   -0.8146 H         1 UNK         0.0000 
     46 H46        -1.6354   -3.6485    3.3841 H         1 UNK         0.0000 
     47 H47        -3.8891   -2.3681    2.1985 H         1 UNK         0.0000 
     48 H48        -3.0647   -4.2537   -1.5634 H         1 UNK         0.0000 
     49 H49         2.5391   -1.3023    2.8334 H         1 UNK         0.0000 
     50 H50         2.8575   -1.3823    1.0910 H         1 UNK         0.0000 
     51 H51        -3.6105   -0.1727   -3.2865 H         1 UNK         0.0000 
     52 H52        -4.6025    1.3173   -3.2641 H         1 UNK         0.0000 
     53 H53         0.7500    1.3355   -2.5273 H         1 UNK         0.0000 
     54 H54         0.9300    2.8387   -1.6093 H         1 UNK         0.0000 
     55 H55        -3.1794    2.2134   -1.6117 H         1 UNK         0.0000 
     56 H56        -0.6017    1.2888    1.0342 H         1 UNK         0.0000 
     57 H57        -0.1214   -0.1494    2.9576 H         1 UNK         0.0000 
     58 O58        -0.1757    1.5434    4.5295 O.3       1 UNK         0.0000 
     59 C59        -0.2389    2.5754    5.5674 C.3       1 UNK         0.0000 
     60 C60         1.0281    2.5422    6.4159 C.3       1 UNK         0.0000 
     61 H61         0.8995    3.2101    7.2725 H         1 UNK         0.0000 
     62 H62         1.2012    1.5298    6.7935 H         1 UNK         0.0000 
     63 H63         1.8983    2.8671    5.8447 H         1 UNK         0.0000 
     64 C64        -0.4815    3.9415    4.9335 C.3       1 UNK         0.0000 
     65 H65         0.3858    4.2768    4.3640 H         1 UNK         0.0000 
     66 H66        -1.3534    3.9007    4.2737 H         1 UNK         0.0000 
     67 H67        -0.6850    4.6686    5.7249 H         1 UNK         0.0000 
     68 C68        -1.4470    2.1455    6.3913 C.3       1 UNK         0.0000 
     69 H69        -2.3475    2.1323    5.7711 H         1 UNK         0.0000 
     70 H70        -1.2897    1.1465    6.8075 H         1 UNK         0.0000 
     71 H71        -1.5991    2.8477    7.2148 H         1 UNK         0.0000 
     72 N72        -1.2173    4.0219   -2.7697 N.ar      1 UNK         0.0000 
@<TRIPOS>BOND
     1    1   22 1    
     2    1   55 1    
     3    1   31 am   BACKBONE|DICT|INTERRES
     4    2   29 2    
     5    3   37 1    
     6    3    9 ar   
     7    3    6 ar   
     8    4   34 1    
     9    4   56 1    
    10    4   30 am   BACKBONE|DICT|INTERRES
    11    5   30 2    
    12    6   11 ar   
    13    6   38 1    
    14    7   57 1    
    15    7   32 am   BACKBONE|DICT|INTERRES
    16    7   33 1    
    17    8   31 2    
    18    9   39 1    
    19    9   72 ar   
    20   10   32 2    
    21   11   25 ar   
    22   11   40 1    
    23   12   28 1    
    24   12   27 1    
    25   13   24 ar   
    26   13   17 ar   
    27   13   41 1    
    28   14   42 1    
    29   14   18 ar   
    30   14   24 ar   
    31   15   43 1    
    32   15   19 ar   
    33   15   26 ar   
    34   16   26 ar   
    35   16   20 ar   
    36   16   44 1    
    37   17   27 ar   
    38   17   45 1    
    39   18   46 1    
    40   18   27 ar   
    41   19   47 1    
    42   19   28 ar   
    43   20   28 ar   
    44   20   48 1    
    45   21   24 1    
    46   21   33 1    
    47   21   49 1    
    48   21   50 1    
    49   22   52 1    
    50   22   29 1    
    51   22   51 1    
    52   23   25 1    
    53   23   34 1    
    54   23   53 1    
    55   23   54 1    
    56   25   72 ar   
    57   26   29 1    
    58   30   33 1    
    59   31   34 1    
    60   32   58 1    
    61   33   35 1    
    62   34   36 1    
    63   58   59 1    
    64   59   64 1    
    65   59   68 1    
    66   59   60 1    
    67   60   61 1    
    68   60   62 1    
    69   60   63 1    
    70   64   66 1    
    71   64   67 1    
    72   64   65 1    
    73   68   69 1    
    74   68   71 1    
    75   68   70 1    
@<TRIPOS>SUBSTRUCTURE
     1 UNK         1 GROUP             0       ****    0 ROOT    
@<TRIPOS>MOLECULE
Cpd5-8-MEC
72   75    1
SMALL
USER_CHARGES


@<TRIPOS>ATOM
      1 N1         -3.1042    1.2243   -1.4809 N.am      1 UNK         0.0000 
      2 O2         -6.3717    0.2876   -1.5896 O.2       1 UNK         0.0000 
      3 C3         -2.8445    5.1583    2.0326 C.ar      1 UNK         0.0000 
      4 N4          0.3076    0.4250   -0.5921 N.am      1 UNK         0.0000 
      5 O5          1.1805    1.2316    1.3334 O.2       1 UNK         0.0000 
      6 C6         -1.5135    5.5004    1.8037 C.ar      1 UNK         0.0000 
      7 N7          3.6212    0.2731    0.2029 N.am      1 UNK         0.0000 
      8 O8         -1.4535    0.0371   -2.5175 O.2       1 UNK         0.0000 
      9 C9         -3.3567    4.0430    1.3780 C.ar      1 UNK         0.0000 
     10 O10         4.8012   -1.2775   -0.9797 O.2       1 UNK         0.0000 
     11 C11        -0.7564    4.7197    0.9368 C.ar      1 UNK         0.0000 
     12 O12        -2.6195   -4.0973    1.2140 O.3       1 UNK         0.0000 
     13 C13         0.9863   -3.4900    0.8399 C.ar      1 UNK         0.0000 
     14 C14         0.0265   -1.7657    2.2189 C.ar      1 UNK         0.0000 
     15 C15        -3.5526   -1.9243   -1.5728 C.ar      1 UNK         0.0000 
     16 C16        -5.1775   -1.6805    0.2030 C.ar      1 UNK         0.0000 
     17 C17        -0.2489   -4.1378    0.7738 C.ar      1 UNK         0.0000 
     18 C18        -1.2108   -2.3963    2.1567 C.ar      1 UNK         0.0000 
     19 C19        -2.9201   -2.9301   -0.8607 C.ar      1 UNK         0.0000 
     20 C20        -4.5326   -2.6742    0.9376 C.ar      1 UNK         0.0000 
     21 C21         2.4120   -1.4912    1.4557 C.3       1 UNK         0.0000 
     22 C22        -4.1874    0.8762   -2.3805 C.3       1 UNK         0.0000 
     23 C23        -0.5743    2.7570   -0.6484 C.3       1 UNK         0.0000 
     24 C24         1.1317   -2.2836    1.5313 C.ar      1 UNK         0.0000 
     25 C25        -1.3542    3.6192    0.3166 C.ar      1 UNK         0.0000 
     26 C26        -4.6585   -1.2624   -1.0267 C.ar      1 UNK         0.0000 
     27 C27        -1.3441   -3.5594    1.4020 C.ar      1 UNK         0.0000 
     28 C28        -3.3756   -3.2492    0.4187 C.ar      1 UNK         0.0000 
     29 C29        -5.2017   -0.0367   -1.6765 C.2       1 UNK         0.0000 
     30 C30         1.2403    0.4591    0.3747 C.2       1 UNK         0.0000 
     31 C31        -1.8456    0.7663   -1.6062 C.2       1 UNK         0.0000 
     32 C32         4.7569   -0.2298   -0.3521 C.2       1 UNK         0.0000 
     33 C33         2.4080   -0.5192    0.2531 C.3       1 UNK         0.0000 
     34 C34        -0.8861    1.2436   -0.5076 C.3       1 UNK         0.0000 
     35 H35         2.3419   -1.0893   -0.6777 H         1 UNK         0.0000 
     36 H36        -1.3557    1.0716    0.4689 H         1 UNK         0.0000 
     37 H37        -3.4716    5.7351    2.7023 H         1 UNK         0.0000 
     38 H38        -1.0701    6.3590    2.2977 H         1 UNK         0.0000 
     39 H39        -4.3882    3.7362    1.5283 H         1 UNK         0.0000 
     40 H40         0.2856    4.9505    0.7417 H         1 UNK         0.0000 
     41 H41         1.8399   -3.9152    0.3180 H         1 UNK         0.0000 
     42 H42         0.1308   -0.8401    2.7788 H         1 UNK         0.0000 
     43 H43        -3.1520   -1.6300   -2.5360 H         1 UNK         0.0000 
     44 H44        -6.0448   -1.1729    0.6143 H         1 UNK         0.0000 
     45 H45        -0.3767   -5.0522    0.2032 H         1 UNK         0.0000 
     46 H46        -2.0811   -1.9739    2.6500 H         1 UNK         0.0000 
     47 H47        -2.0366   -3.4191   -1.2574 H         1 UNK         0.0000 
     48 H48        -4.8731   -2.9564    1.9282 H         1 UNK         0.0000 
     49 H49         2.5510   -0.8958    2.3639 H         1 UNK         0.0000 
     50 H50         3.2779   -2.1501    1.3397 H         1 UNK         0.0000 
     51 H51        -3.7632    0.3757   -3.2557 H         1 UNK         0.0000 
     52 H52        -4.7165    1.7735   -2.7072 H         1 UNK         0.0000 
     53 H53        -0.7828    3.0855   -1.6742 H         1 UNK         0.0000 
     54 H54         0.4924    2.9074   -0.4742 H         1 UNK         0.0000 
     55 H55        -3.2761    1.8807   -0.7124 H         1 UNK         0.0000 
     56 H56         0.3719   -0.2145   -1.3769 H         1 UNK         0.0000 
     57 H57         3.7034    1.0563    0.8394 H         1 UNK         0.0000 
     58 O58         5.7894    0.5970   -0.1275 O.3       1 UNK         0.0000 
     59 C59         7.1224    0.3026   -0.6553 C.3       1 UNK         0.0000 
     60 C60         7.0871    0.2708   -2.1802 C.3       1 UNK         0.0000 
     61 H61         8.1112    0.2008   -2.5584 H         1 UNK         0.0000 
     62 H62         6.5180   -0.5841   -2.5469 H         1 UNK         0.0000 
     63 H63         6.6418    1.1931   -2.5652 H         1 UNK         0.0000 
     64 C64         7.9452    1.4881   -0.1641 C.3       1 UNK         0.0000 
     65 H65         7.5400    2.4240   -0.5587 H         1 UNK         0.0000 
     66 H66         7.9368    1.5325    0.9285 H         1 UNK         0.0000 
     67 H67         8.9794    1.3840   -0.5024 H         1 UNK         0.0000 
     68 C68         7.6494   -0.9983   -0.0573 C.3       1 UNK         0.0000 
     69 H69         7.5831   -0.9640    1.0344 H         1 UNK         0.0000 
     70 H70         7.0918   -1.8601   -0.4248 H         1 UNK         0.0000 
     71 H71         8.7015   -1.1155   -0.3329 H         1 UNK         0.0000 
     72 N72        -2.6342    3.2900    0.5403 N.ar      1 UNK         0.0000 
@<TRIPOS>BOND
     1    1   55 1    
     2    1   22 1    
     3    1   31 am   BACKBONE|DICT|INTERRES
     4    2   29 2    
     5    3   37 1    
     6    3    6 ar   
     7    3    9 ar   
     8    4   34 1    
     9    4   30 am   BACKBONE|DICT|INTERRES
    10    4   56 1    
    11    5   30 2    
    12    6   38 1    
    13    6   11 ar   
    14    7   33 1    
    15    7   57 1    
    16    7   32 am   BACKBONE|DICT|INTERRES
    17    8   31 2    
    18    9   39 1    
    19    9   72 ar   
    20   10   32 2    
    21   11   25 ar   
    22   11   40 1    
    23   12   27 1    
    24   12   28 1    
    25   13   24 ar   
    26   13   17 ar   
    27   13   41 1    
    28   14   42 1    
    29   14   18 ar   
    30   14   24 ar   
    31   15   26 ar   
    32   15   19 ar   
    33   15   43 1    
    34   16   44 1    
    35   16   20 ar   
    36   16   26 ar   
    37   17   27 ar   
    38   17   45 1    
    39   18   46 1    
    40   18   27 ar   
    41   19   28 ar   
    42   19   47 1    
    43   20   48 1    
    44   20   28 ar   
    45   21   24 1    
    46   21   49 1    
    47   21   33 1    
    48   21   50 1    
    49   22   29 1    
    50   22   51 1    
    51   22   52 1    
    52   23   34 1    
    53   23   54 1    
    54   23   25 1    
    55   23   53 1    
    56   25   72 ar   
    57   26   29 1    
    58   30   33 1    
    59   31   34 1    
    60   32   58 1    
    61   33   35 1    
    62   34   36 1    
    63   58   59 1    
    64   59   64 1    
    65   59   68 1    
    66   59   60 1    
    67   60   61 1    
    68   60   62 1    
    69   60   63 1    
    70   64   66 1    
    71   64   65 1    
    72   64   67 1    
    73   68   69 1    
    74   68   70 1    
    75   68   71 1    
@<TRIPOS>SUBSTRUCTURE
     1 UNK         1 GROUP             0       ****    0 ROOT    
@<TRIPOS>MOLECULE
Cpd5-9
72   75    1
SMALL
USER_CHARGES


@<TRIPOS>ATOM
      1 N1         -2.8832    0.9292   -1.0101 N.am      1 UNK         0.0000 
      2 O2         -5.7020   -0.2762   -2.7352 O.2       1 UNK         0.0000 
      3 C3         -2.5480   -0.9208   -6.0236 C.ar      1 UNK         0.0000 
      4 N4         -0.0987    0.5073   -0.2612 N.am      1 UNK         0.0000 
      5 O5          2.0359   -0.0114   -0.8208 O.2       1 UNK         0.0000 
      6 C6         -1.1681   -1.0879   -5.9481 C.ar      1 UNK         0.0000 
      7 N7          0.5457    0.7295    2.3980 N.am      1 UNK         0.0000 
      8 O8         -1.9667    2.1571   -2.6961 O.2       1 UNK         0.0000 
      9 C9         -3.2590   -0.7710   -4.8337 C.ar      1 UNK         0.0000 
     10 O10        -0.5667    2.4582    3.3791 O.2       1 UNK         0.0000 
     11 C11        -0.5598   -1.1019   -4.6953 C.ar      1 UNK         0.0000 
     12 O12        -2.6344   -4.3334    1.2237 O.3       1 UNK         0.0000 
     13 C13         0.6229   -2.7775    0.5842 C.ar      1 UNK         0.0000 
     14 C14         0.0749   -2.5114    2.9112 C.ar      1 UNK         0.0000 
     15 C15        -4.4169   -1.2401    0.4431 C.ar      1 UNK         0.0000 
     16 C16        -4.3068   -2.6132   -1.5456 C.ar      1 UNK         0.0000 
     17 C17        -0.5198   -3.5450    0.3960 C.ar      1 UNK         0.0000 
     18 C18        -1.0789   -3.2796    2.7370 C.ar      1 UNK         0.0000 
     19 C19        -3.8460   -2.2629    1.1878 C.ar      1 UNK         0.0000 
     20 C20        -3.7142   -3.6382   -0.8094 C.ar      1 UNK         0.0000 
     21 C21         2.0233   -1.1950    1.9516 C.3       1 UNK         0.0000 
     22 C22        -4.2743    1.1185   -1.4027 C.3       1 UNK         0.0000 
     23 C23        -0.7581   -0.9218   -2.1723 C.3       1 UNK         0.0000 
     24 C24         0.9066   -2.2030    1.8301 C.ar      1 UNK         0.0000 
     25 C25        -1.3547   -0.9484   -3.5574 C.ar      1 UNK         0.0000 
     26 C26        -4.6013   -1.3904   -0.9379 C.ar      1 UNK         0.0000 
     27 C27        -1.3905   -3.7428    1.4656 C.ar      1 UNK         0.0000 
     28 C28        -3.4312   -3.4246    0.5366 C.ar      1 UNK         0.0000 
     29 C29        -4.9451   -0.2091   -1.7872 C.2       1 UNK         0.0000 
     30 C30         1.1897    0.2346    0.0369 C.2       1 UNK         0.0000 
     31 C31        -1.8617    1.3060   -1.8235 C.2       1 UNK         0.0000 
     32 C32         0.2590    2.0535    2.5760 C.2       1 UNK         0.0000 
     33 C33         1.5855    0.2246    1.5217 C.3       1 UNK         0.0000 
     34 C34        -0.5589    0.5213   -1.6428 C.3       1 UNK         0.0000 
     35 H35         2.4604    0.8779    1.5873 H         1 UNK         0.0000 
     36 H36         0.1968    1.0276   -2.2484 H         1 UNK         0.0000 
     37 H37        -3.0654   -0.9057   -6.9762 H         1 UNK         0.0000 
     38 H38        -0.5743   -1.2073   -6.8488 H         1 UNK         0.0000 
     39 H39        -4.3391   -0.6353   -4.8397 H         1 UNK         0.0000 
     40 H40         0.5131   -1.2319   -4.5943 H         1 UNK         0.0000 
     41 H41         1.2885   -2.5885   -0.2546 H         1 UNK         0.0000 
     42 H42         0.3101   -2.1279    3.9015 H         1 UNK         0.0000 
     43 H43        -4.6822   -0.3091    0.9376 H         1 UNK         0.0000 
     44 H44        -4.4585   -2.7226   -2.6147 H         1 UNK         0.0000 
     45 H45        -0.7684   -3.9473   -0.5818 H         1 UNK         0.0000 
     46 H46        -1.7545   -3.4750    3.5634 H         1 UNK         0.0000 
     47 H47        -3.6543   -2.1400    2.2484 H         1 UNK         0.0000 
     48 H48        -3.4014   -4.5632   -1.2826 H         1 UNK         0.0000 
     49 H49         2.3867   -1.1332    2.9816 H         1 UNK         0.0000 
     50 H50         2.8644   -1.4765    1.3132 H         1 UNK         0.0000 
     51 H51        -4.8475    1.5843   -0.5923 H         1 UNK         0.0000 
     52 H52        -4.3014    1.7797   -2.2689 H         1 UNK         0.0000 
     53 H53        -1.4242   -1.4608   -1.4871 H         1 UNK         0.0000 
     54 H54         0.2183   -1.4131   -2.1582 H         1 UNK         0.0000 
     55 H55        -2.7074    0.1311   -0.4113 H         1 UNK         0.0000 
     56 H56        -0.7358    0.6846    0.5052 H         1 UNK         0.0000 
     57 H57         0.0713    0.0986    3.0308 H         1 UNK         0.0000 
     58 O58         0.9838    2.8059    1.7408 O.3       1 UNK         0.0000 
     59 C59         0.7218    4.2386    1.5805 C.3       1 UNK         0.0000 
     60 C60         1.0321    4.9768    2.8779 C.3       1 UNK         0.0000 
     61 H61         0.9742    6.0540    2.6966 H         1 UNK         0.0000 
     62 H62         0.3230    4.7124    3.6632 H         1 UNK         0.0000 
     63 H63         2.0463    4.7390    3.2122 H         1 UNK         0.0000 
     64 C64         1.7040    4.6322    0.4839 C.3       1 UNK         0.0000 
     65 H65         2.7314    4.4353    0.8024 H         1 UNK         0.0000 
     66 H66         1.5020    4.0641   -0.4290 H         1 UNK         0.0000 
     67 H67         1.6034    5.6981    0.2637 H         1 UNK         0.0000 
     68 C68        -0.7154    4.4477    1.1145 C.3       1 UNK         0.0000 
     69 H69        -0.9148    3.8369    0.2279 H         1 UNK         0.0000 
     70 H70        -1.4304    4.1910    1.8973 H         1 UNK         0.0000 
     71 H71        -0.8527    5.4984    0.8439 H         1 UNK         0.0000 
     72 N72        -2.6842   -0.7828   -3.6293 N.ar      1 UNK         0.0000 
@<TRIPOS>BOND
     1    1   22 1    
     2    1   31 am   BACKBONE|DICT|INTERRES
     3    1   55 1    
     4    2   29 2    
     5    3   37 1    
     6    3    9 ar   
     7    3    6 ar   
     8    4   56 1    
     9    4   30 am   BACKBONE|DICT|INTERRES
    10    4   34 1    
    11    5   30 2    
    12    6   11 ar   
    13    6   38 1    
    14    7   57 1    
    15    7   32 am   BACKBONE|DICT|INTERRES
    16    7   33 1    
    17    8   31 2    
    18    9   72 ar   
    19    9   39 1    
    20   10   32 2    
    21   11   25 ar   
    22   11   40 1    
    23   12   28 1    
    24   12   27 1    
    25   13   24 ar   
    26   13   17 ar   
    27   13   41 1    
    28   14   42 1    
    29   14   18 ar   
    30   14   24 ar   
    31   15   43 1    
    32   15   19 ar   
    33   15   26 ar   
    34   16   26 ar   
    35   16   20 ar   
    36   16   44 1    
    37   17   27 ar   
    38   17   45 1    
    39   18   46 1    
    40   18   27 ar   
    41   19   47 1    
    42   19   28 ar   
    43   20   28 ar   
    44   20   48 1    
    45   21   49 1    
    46   21   24 1    
    47   21   33 1    
    48   21   50 1    
    49   22   51 1    
    50   22   29 1    
    51   22   52 1    
    52   23   34 1    
    53   23   53 1    
    54   23   25 1    
    55   23   54 1    
    56   25   72 ar   
    57   26   29 1    
    58   30   33 1    
    59   31   34 1    
    60   32   58 1    
    61   33   35 1    
    62   34   36 1    
    63   58   59 1    
    64   59   60 1    
    65   59   68 1    
    66   59   64 1    
    67   60   61 1    
    68   60   62 1    
    69   60   63 1    
    70   64   67 1    
    71   64   65 1    
    72   64   66 1    
    73   68   71 1    
    74   68   70 1    
    75   68   69 1    
@<TRIPOS>SUBSTRUCTURE
     1 UNK         1 GROUP             0       ****    0 ROOT    
@<TRIPOS>MOLECULE
Cpd5-10
72   75    1
SMALL
USER_CHARGES


@<TRIPOS>ATOM
      1 N1         -2.3976    0.6092   -2.1162 N.am      1 UNK         0.0000 
      2 O2         -5.9099    0.2103   -2.0866 O.2       1 UNK         0.0000 
      3 C3          0.1956    3.0692   -4.8591 C.ar      1 UNK         0.0000 
      4 N4         -0.0149    0.4007   -0.5443 N.am      1 UNK         0.0000 
      5 O5          1.4904    1.2495    0.9227 O.2       1 UNK         0.0000 
      6 C6          1.2337    2.6325   -4.0403 C.ar      1 UNK         0.0000 
      7 N7          3.3599   -0.1104   -0.6550 N.am      1 UNK         0.0000 
      8 O8         -3.3833    1.5183   -0.3064 O.2       1 UNK         0.0000 
      9 C9         -1.0079    3.4345   -4.2587 C.ar      1 UNK         0.0000 
     10 O10         3.9738   -1.8293   -2.0206 O.2       1 UNK         0.0000 
     11 C11         1.0229    2.5770   -2.6659 C.ar      1 UNK         0.0000 
     12 O12        -2.6813   -4.0507    1.4594 O.3       1 UNK         0.0000 
     13 C13         0.9254   -3.6765    0.9141 C.ar      1 UNK         0.0000 
     14 C14         0.0964   -1.7555    2.1062 C.ar      1 UNK         0.0000 
     15 C15        -3.2992   -2.1828   -1.6222 C.ar      1 UNK         0.0000 
     16 C16        -4.9615   -1.5720    0.0255 C.ar      1 UNK         0.0000 
     17 C17        -0.3251   -4.2883    1.0094 C.ar      1 UNK         0.0000 
     18 C18        -1.1587   -2.3472    2.1969 C.ar      1 UNK         0.0000 
     19 C19        -2.8043   -3.1536   -0.7673 C.ar      1 UNK         0.0000 
     20 C20        -4.4470   -2.5212    0.9076 C.ar      1 UNK         0.0000 
     21 C21         2.3870   -1.6248    1.0595 C.3       1 UNK         0.0000 
     22 C22        -3.6676    0.5474   -2.8206 C.3       1 UNK         0.0000 
     23 C23        -0.5121    2.8525   -0.6788 C.3       1 UNK         0.0000 
     24 C24         1.1355   -2.3866    1.4106 C.ar      1 UNK         0.0000 
     25 C25        -0.2228    2.9549   -2.1528 C.ar      1 UNK         0.0000 
     26 C26        -4.3551   -1.3595   -1.2150 C.ar      1 UNK         0.0000 
     27 C27        -1.3700   -3.5849    1.5938 C.ar      1 UNK         0.0000 
     28 C28        -3.3350   -3.2619    0.5206 C.ar      1 UNK         0.0000 
     29 C29        -4.7610   -0.1851   -2.0336 C.2       1 UNK         0.0000 
     30 C30         1.1660    0.3801    0.1168 C.2       1 UNK         0.0000 
     31 C31        -2.3576    1.1778   -0.8896 C.2       1 UNK         0.0000 
     32 C32         4.2209   -0.7587   -1.4858 C.2       1 UNK         0.0000 
     33 C33         2.1445   -0.7539   -0.1960 C.3       1 UNK         0.0000 
     34 C34        -0.9978    1.4407   -0.2500 C.3       1 UNK         0.0000 
     35 H35         1.7748   -1.3824   -1.0110 H         1 UNK         0.0000 
     36 H36        -1.1742    1.4657    0.8299 H         1 UNK         0.0000 
     37 H37         0.3107    3.1326   -5.9352 H         1 UNK         0.0000 
     38 H38         2.1909    2.3436   -4.4631 H         1 UNK         0.0000 
     39 H39        -1.8389    3.7874   -4.8644 H         1 UNK         0.0000 
     40 H40         1.8100    2.2508   -1.9920 H         1 UNK         0.0000 
     41 H41         1.7323   -4.1896    0.3973 H         1 UNK         0.0000 
     42 H42         0.2558   -0.7679    2.5330 H         1 UNK         0.0000 
     43 H43        -2.8430   -2.0518   -2.5988 H         1 UNK         0.0000 
     44 H44        -5.7871   -0.9348    0.3277 H         1 UNK         0.0000 
     45 H45        -0.5115   -5.2621    0.5678 H         1 UNK         0.0000 
     46 H46        -1.9896   -1.8312    2.6687 H         1 UNK         0.0000 
     47 H47        -1.9631   -3.7720   -1.0598 H         1 UNK         0.0000 
     48 H48        -4.8480   -2.6396    1.9086 H         1 UNK         0.0000 
     49 H49         2.7027   -0.9661    1.8754 H         1 UNK         0.0000 
     50 H50         3.2091   -2.3087    0.8288 H         1 UNK         0.0000 
     51 H51        -3.5064    0.0272   -3.7693 H         1 UNK         0.0000 
     52 H52        -4.0501    1.5507   -3.0343 H         1 UNK         0.0000 
     53 H53         0.3801    3.0825   -0.0944 H         1 UNK         0.0000 
     54 H54        -1.2992    3.5626   -0.4120 H         1 UNK         0.0000 
     55 H55        -1.5477    0.5221   -2.6592 H         1 UNK         0.0000 
     56 H56        -0.2900   -0.4244   -1.0634 H         1 UNK         0.0000 
     57 H57         3.6992    0.6904   -0.1362 H         1 UNK         0.0000 
     58 O58         5.3445   -0.0426   -1.6374 O.3       1 UNK         0.0000 
     59 C59         6.4170   -0.4951   -2.5249 C.3       1 UNK         0.0000 
     60 C60         5.9085   -0.5736   -3.9612 C.3       1 UNK         0.0000 
     61 H61         6.7552   -0.7579   -4.6288 H         1 UNK         0.0000 
     62 H62         5.1837   -1.3790   -4.0833 H         1 UNK         0.0000 
     63 H63         5.4459    0.3755   -4.2484 H         1 UNK         0.0000 
     64 C64         7.4553    0.6121   -2.3850 C.3       1 UNK         0.0000 
     65 H65         7.0360    1.5714   -2.7007 H         1 UNK         0.0000 
     66 H66         7.7864    0.6960   -1.3461 H         1 UNK         0.0000 
     67 H67         8.3218    0.3855   -3.0114 H         1 UNK         0.0000 
     68 C68         6.9819   -1.8238   -2.0323 C.3       1 UNK         0.0000 
     69 H69         7.2653   -1.7437   -0.9784 H         1 UNK         0.0000 
     70 H70         6.2595   -2.6318   -2.1502 H         1 UNK         0.0000 
     71 H71         7.8784   -2.0650   -2.6107 H         1 UNK         0.0000 
     72 N72        -1.2231    3.3795   -2.9401 N.ar      1 UNK         0.0000 
@<TRIPOS>BOND
     1    1   31 am   BACKBONE|DICT|INTERRES
     2    1   22 1    
     3    1   55 1    
     4    2   29 2    
     5    3    6 ar   
     6    3    9 ar   
     7    3   37 1    
     8    4   30 am   BACKBONE|DICT|INTERRES
     9    4   34 1    
    10    4   56 1    
    11    5   30 2    
    12    6   11 ar   
    13    6   38 1    
    14    7   57 1    
    15    7   32 am   BACKBONE|DICT|INTERRES
    16    7   33 1    
    17    8   31 2    
    18    9   72 ar   
    19    9   39 1    
    20   10   32 2    
    21   11   40 1    
    22   11   25 ar   
    23   12   27 1    
    24   12   28 1    
    25   13   24 ar   
    26   13   17 ar   
    27   13   41 1    
    28   14   42 1    
    29   14   18 ar   
    30   14   24 ar   
    31   15   19 ar   
    32   15   26 ar   
    33   15   43 1    
    34   16   20 ar   
    35   16   44 1    
    36   16   26 ar   
    37   17   27 ar   
    38   17   45 1    
    39   18   46 1    
    40   18   27 ar   
    41   19   28 ar   
    42   19   47 1    
    43   20   48 1    
    44   20   28 ar   
    45   21   49 1    
    46   21   24 1    
    47   21   33 1    
    48   21   50 1    
    49   22   29 1    
    50   22   52 1    
    51   22   51 1    
    52   23   54 1    
    53   23   53 1    
    54   23   25 1    
    55   23   34 1    
    56   25   72 ar   
    57   26   29 1    
    58   30   33 1    
    59   31   34 1    
    60   32   58 1    
    61   33   35 1    
    62   34   36 1    
    63   58   59 1    
    64   59   64 1    
    65   59   60 1    
    66   59   68 1    
    67   60   63 1    
    68   60   61 1    
    69   60   62 1    
    70   64   65 1    
    71   64   66 1    
    72   64   67 1    
    73   68   69 1    
    74   68   70 1    
    75   68   71 1    
@<TRIPOS>SUBSTRUCTURE
     1 UNK         1 GROUP             0       ****    0 ROOT    
