@<TRIPOS>MOLECULE
Cpd5-500
72   75    1
SMALL
USER_CHARGES


@<TRIPOS>ATOM
      1 C1         40.1260   41.0380   34.2560 C.3       1 UNK         0.0000 
      2 H2         40.5440   40.9330   35.2640 H         1 UNK         0.0000 
      3 H3         40.3370   42.0470   33.8800 H         1 UNK         0.0000 
      4 H4         39.0450   40.9580   34.4210 H         1 UNK         0.0000 
      5 C5         40.5410   39.9150   33.2300 C.3       1 UNK         0.0000 
      6 C6         42.0590   39.6010   33.1290 C.3       1 UNK         0.0000 
      7 H7         42.2020   38.6590   32.5850 H         1 UNK         0.0000 
      8 H8         42.6150   40.4460   32.7050 H         1 UNK         0.0000 
      9 H9         42.4820   39.5350   34.1380 H         1 UNK         0.0000 
     10 C10        40.0260   40.2190   31.7740 C.3       1 UNK         0.0000 
     11 H11        40.6680   41.0330   31.4160 H         1 UNK         0.0000 
     12 H12        40.2180   39.3830   31.0900 H         1 UNK         0.0000 
     13 H13        38.9950   40.5750   31.6590 H         1 UNK         0.0000 
     14 O14        39.7640   38.7960   33.6430 O.3       1 UNK         0.0000 
     15 C15        40.1110   38.1740   34.7810 C.2       1 UNK         0.0000 
     16 O16        40.8430   38.6000   35.6970 O.2       1 UNK         0.0000 
     17 N17        39.2250   37.1150   35.0180 N.am      1 UNK         0.0000 
     18 H18        38.6160   36.8250   34.2630 H         1 UNK         0.0000 
     19 C19        38.9600   36.5470   36.4150 C.3       1 UNK         0.0000 
     20 C20        38.5800   35.0210   36.4090 C.2       1 UNK         0.0000 
     21 N21        38.0730   34.4700   35.2900 N.am      1 UNK         0.0000 
     22 H22        38.0450   35.0640   34.4700 H         1 UNK         0.0000 
     23 O23        38.7880   34.4030   37.4470 O.2       1 UNK         0.0000 
     24 H24        39.9310   36.6080   36.9230 H         1 UNK         0.0000 
     25 C25        37.9500   37.4900   37.1230 C.3       1 UNK         0.0000 
     26 H26        38.3480   38.5000   36.9660 H         1 UNK         0.0000 
     27 H27        37.8650   37.2710   38.1940 H         1 UNK         0.0000 
     28 C28        36.5470   37.4480   36.4620 C.ar      1 UNK         0.0000 
     29 C29        36.1660   38.3510   35.4040 C.ar      1 UNK         0.0000 
     30 C30        34.9950   38.0710   34.6360 C.ar      1 UNK         0.0000 
     31 H31        34.7020   38.5790   33.7220 H         1 UNK         0.0000 
     32 H32        36.8540   39.1030   35.0290 H         1 UNK         0.0000 
     33 C33        35.6470   36.4080   36.7750 C.ar      1 UNK         0.0000 
     34 H34        35.9830   35.7360   37.5590 H         1 UNK         0.0000 
     35 C35        34.4880   36.1310   36.0400 C.ar      1 UNK         0.0000 
     36 H36        33.7690   35.3470   36.2610 H         1 UNK         0.0000 
     37 C37        34.1930   36.8970   34.9190 C.ar      1 UNK         0.0000 
     38 O38        33.2110   36.4920   34.0720 O.3       1 UNK         0.0000 
     39 C39        33.5560   35.3790   33.3270 C.ar      1 UNK         0.0000 
     40 C40        32.8010   34.2040   33.3750 C.ar      1 UNK         0.0000 
     41 C41        33.3320   33.0050   32.8150 C.ar      1 UNK         0.0000 
     42 H42        32.8870   32.0400   33.0380 H         1 UNK         0.0000 
     43 H43        31.8420   34.1670   33.8840 H         1 UNK         0.0000 
     44 C44        34.7760   35.3080   32.6810 C.ar      1 UNK         0.0000 
     45 H45        35.4230   36.1780   32.7420 H         1 UNK         0.0000 
     46 C46        35.2570   34.1920   32.0790 C.ar      1 UNK         0.0000 
     47 H47        36.2150   34.1500   31.5700 H         1 UNK         0.0000 
     48 C48        34.5780   32.9800   32.1560 C.ar      1 UNK         0.0000 
     49 C49        35.1870   31.6450   31.8770 C.2       1 UNK         0.0000 
     50 O50        34.4770   30.6800   31.5710 O.2       1 UNK         0.0000 
     51 C51        36.7020   31.3880   31.8490 C.3       1 UNK         0.0000 
     52 H52        37.0350   30.4510   31.3870 H         1 UNK         0.0000 
     53 H53        37.2120   32.1660   31.2680 H         1 UNK         0.0000 
     54 N54        37.1820   31.4560   33.2220 N.am      1 UNK         0.0000 
     55 H55        36.7700   30.9000   33.9610 H         1 UNK         0.0000 
     56 C56        37.7260   32.6020   33.6670 C.2       1 UNK         0.0000 
     57 O57        38.2610   33.3890   32.9110 O.2       1 UNK         0.0000 
     58 C58        37.6590   32.9990   35.1820 C.3       1 UNK         0.0000 
     59 H59        38.3300   32.3250   35.7290 H         1 UNK         0.0000 
     60 C60        36.2520   32.7930   35.7620 C.3       1 UNK         0.0000 
     61 H61        35.4450   33.1740   35.1240 H         1 UNK         0.0000 
     62 H62        36.0130   33.5120   36.5560 H         1 UNK         0.0000 
     63 C63        36.0160   31.2970   36.2290 C.ar      1 UNK         0.0000 
     64 C64        35.0980   30.4930   35.5680 C.ar      1 UNK         0.0000 
     65 H65        34.4960   30.7610   34.7040 H         1 UNK         0.0000 
     66 C66        34.9270   29.2120   36.0590 C.ar      1 UNK         0.0000 
     67 H67        34.3380   28.4550   35.5510 H         1 UNK         0.0000 
     68 C68        35.5950   28.8220   37.2440 C.ar      1 UNK         0.0000 
     69 H69        35.4990   27.8030   37.6060 H         1 UNK         0.0000 
     70 C70        36.5820   29.7040   37.7200 C.ar      1 UNK         0.0000 
     71 H71        37.1790   29.3630   38.5640 H         1 UNK         0.0000 
     72 N72        36.8430   30.8900   37.1690 N.ar      1 UNK         0.0000 
@<TRIPOS>BOND
     1    1    4 1    
     2    1    2 1    
     3    1    3 1    
     4    1    5 1    
     5    5   14 1    
     6    5    6 1    
     7    5   10 1    
     8    6    9 1    
     9    6    7 1    
    10    6    8 1    
    11   10   11 1    
    12   10   12 1    
    13   10   13 1    
    14   14   15 1    
    15   15   17 am   BACKBONE|DICT|INTERRES
    16   15   16 2    
    17   17   19 1    
    18   17   18 1    
    19   19   24 1    
    20   19   25 1    
    21   19   20 1    
    22   20   23 2    
    23   20   21 am   BACKBONE|DICT|INTERRES
    24   21   22 1    
    25   21   58 1    
    26   25   27 1    
    27   25   26 1    
    28   25   28 1    
    29   28   33 ar   
    30   28   29 ar   
    31   29   30 ar   
    32   29   32 1    
    33   30   37 ar   
    34   30   31 1    
    35   33   34 1    
    36   33   35 ar   
    37   35   36 1    
    38   35   37 ar   
    39   37   38 1    
    40   38   39 1    
    41   39   40 ar   
    42   39   44 ar   
    43   40   43 1    
    44   40   41 ar   
    45   41   42 1    
    46   41   48 ar   
    47   44   45 1    
    48   44   46 ar   
    49   46   48 ar   
    50   46   47 1    
    51   48   49 1    
    52   49   50 2    
    53   49   51 1    
    54   51   54 1    
    55   51   52 1    
    56   51   53 1    
    57   54   56 am   BACKBONE|DICT|INTERRES
    58   54   55 1    
    59   56   58 1    
    60   56   57 2    
    61   58   59 1    
    62   58   60 1    
    63   60   63 1    
    64   60   62 1    
    65   60   61 1    
    66   63   72 ar   
    67   63   64 ar   
    68   64   66 ar   
    69   64   65 1    
    70   66   68 ar   
    71   66   67 1    
    72   68   69 1    
    73   68   70 ar   
    74   70   71 1    
    75   70   72 ar   
@<TRIPOS>SUBSTRUCTURE
     1 UNK         1 GROUP             0       ****    0 ROOT    
@<TRIPOS>MOLECULE
Cpd5-1000
72   75    1
SMALL
USER_CHARGES


@<TRIPOS>ATOM
      1 C1         43.0616   37.0594   33.5248 C.3       1 UNK         0.0000 
      2 H2         43.4073   37.7980   34.2578 H         1 UNK         0.0000 
      3 H3         43.0329   36.0452   33.9399 H         1 UNK         0.0000 
      4 H4         43.8316   37.0396   32.7434 H         1 UNK         0.0000 
      5 C5         41.7149   37.3222   32.8550 C.3       1 UNK         0.0000 
      6 C6         41.2758   36.1943   31.9562 C.3       1 UNK         0.0000 
      7 H7         41.1422   35.3052   32.5846 H         1 UNK         0.0000 
      8 H8         40.3135   36.4120   31.4760 H         1 UNK         0.0000 
      9 H9         42.0435   36.0372   31.1891 H         1 UNK         0.0000 
     10 C10        41.8040   38.5485   31.9850 C.3       1 UNK         0.0000 
     11 H11        42.6513   38.5205   31.2892 H         1 UNK         0.0000 
     12 H12        41.0184   38.6767   31.2304 H         1 UNK         0.0000 
     13 H13        41.7555   39.4825   32.5582 H         1 UNK         0.0000 
     14 O14        40.7279   37.7216   33.8820 O.3       1 UNK         0.0000 
     15 C15        40.3872   36.7822   34.7857 C.2       1 UNK         0.0000 
     16 O16        40.8949   35.6712   34.9218 O.2       1 UNK         0.0000 
     17 N17        39.4197   37.2554   35.6039 N.am      1 UNK         0.0000 
     18 H18        39.1489   38.2192   35.4551 H         1 UNK         0.0000 
     19 C19        38.8825   36.5607   36.7720 C.3       1 UNK         0.0000 
     20 C20        38.5169   35.0645   36.5358 C.2       1 UNK         0.0000 
     21 N21        38.1772   34.6722   35.2609 N.am      1 UNK         0.0000 
     22 H22        38.2560   35.3769   34.5376 H         1 UNK         0.0000 
     23 O23        38.6751   34.2459   37.4459 O.2       1 UNK         0.0000 
     24 H24        39.6405   36.4164   37.5515 H         1 UNK         0.0000 
     25 C25        37.7340   37.4077   37.4811 C.3       1 UNK         0.0000 
     26 H26        38.0598   38.4426   37.6435 H         1 UNK         0.0000 
     27 H27        37.4948   36.9770   38.4614 H         1 UNK         0.0000 
     28 C28        36.4929   37.2904   36.6841 C.ar      1 UNK         0.0000 
     29 C29        36.3186   38.0929   35.5435 C.ar      1 UNK         0.0000 
     30 C30        35.3123   37.8963   34.5587 C.ar      1 UNK         0.0000 
     31 H31        35.2159   38.4949   33.6578 H         1 UNK         0.0000 
     32 H32        36.9561   38.9723   35.5427 H         1 UNK         0.0000 
     33 C33        35.4993   36.2922   36.8624 C.ar      1 UNK         0.0000 
     34 H34        35.6800   35.7131   37.7642 H         1 UNK         0.0000 
     35 C35        34.5190   36.0761   35.8754 C.ar      1 UNK         0.0000 
     36 H36        33.7281   35.3373   35.9572 H         1 UNK         0.0000 
     37 C37        34.4248   36.9019   34.7417 C.ar      1 UNK         0.0000 
     38 O38        33.5421   36.5407   33.7540 O.3       1 UNK         0.0000 
     39 C39        33.6370   35.3905   33.1463 C.ar      1 UNK         0.0000 
     40 C40        33.0795   34.2517   33.7807 C.ar      1 UNK         0.0000 
     41 C41        33.4703   33.0305   33.2519 C.ar      1 UNK         0.0000 
     42 H42        32.9948   32.1411   33.6545 H         1 UNK         0.0000 
     43 H43        32.2825   34.3956   34.5036 H         1 UNK         0.0000 
     44 C44        34.5663   35.2730   32.0480 C.ar      1 UNK         0.0000 
     45 H45        34.8506   36.1839   31.5311 H         1 UNK         0.0000 
     46 C46        34.9142   34.0256   31.5245 C.ar      1 UNK         0.0000 
     47 H47        35.6250   34.0199   30.7031 H         1 UNK         0.0000 
     48 C48        34.4470   32.8757   32.2042 C.ar      1 UNK         0.0000 
     49 C49        35.0730   31.5446   31.9482 C.2       1 UNK         0.0000 
     50 O50        34.4193   30.5113   32.1338 O.2       1 UNK         0.0000 
     51 C51        36.5767   31.4073   31.8684 C.3       1 UNK         0.0000 
     52 H52        36.9107   30.4212   31.5240 H         1 UNK         0.0000 
     53 H53        37.0143   32.0503   31.0944 H         1 UNK         0.0000 
     54 N54        37.2411   31.7006   33.1239 N.am      1 UNK         0.0000 
     55 H55        36.9286   31.0487   33.8333 H         1 UNK         0.0000 
     56 C56        37.7236   32.9510   33.5077 C.2       1 UNK         0.0000 
     57 O57        38.0992   33.7060   32.6482 O.2       1 UNK         0.0000 
     58 C58        37.7501   33.2467   35.0029 C.3       1 UNK         0.0000 
     59 H59        38.4278   32.5799   35.5514 H         1 UNK         0.0000 
     60 C60        36.3943   32.9610   35.6546 C.3       1 UNK         0.0000 
     61 H61        35.6548   33.4506   35.0082 H         1 UNK         0.0000 
     62 H62        36.3046   33.5026   36.6041 H         1 UNK         0.0000 
     63 C63        36.1272   31.4835   35.9642 C.ar      1 UNK         0.0000 
     64 C64        36.8265   30.8318   37.0492 C.ar      1 UNK         0.0000 
     65 H65        37.4320   31.5072   37.6456 H         1 UNK         0.0000 
     66 C66        36.7460   29.3989   37.2880 C.ar      1 UNK         0.0000 
     67 H67        37.3456   28.8581   38.0142 H         1 UNK         0.0000 
     68 C68        35.9570   28.7041   36.3177 C.ar      1 UNK         0.0000 
     69 H69        35.9092   27.6212   36.3762 H         1 UNK         0.0000 
     70 C70        35.2272   29.4602   35.3827 C.ar      1 UNK         0.0000 
     71 H71        34.5326   28.9044   34.7542 H         1 UNK         0.0000 
     72 N72        35.1773   30.7975   35.3142 N.ar      1 UNK         0.0000 
@<TRIPOS>BOND
     1    1    3 1    
     2    1    2 1    
     3    1    4 1    
     4    1    5 1    
     5    5   14 1    
     6    5    6 1    
     7    5   10 1    
     8    6    7 1    
     9    6    8 1    
    10    6    9 1    
    11   10   13 1    
    12   10   11 1    
    13   10   12 1    
    14   14   15 1    
    15   15   16 2    
    16   15   17 am   BACKBONE|DICT|INTERRES
    17   17   19 1    
    18   17   18 1    
    19   19   25 1    
    20   19   24 1    
    21   19   20 1    
    22   20   23 2    
    23   20   21 am   BACKBONE|DICT|INTERRES
    24   21   22 1    
    25   21   58 1    
    26   25   26 1    
    27   25   27 1    
    28   25   28 1    
    29   28   33 ar   
    30   28   29 ar   
    31   29   32 1    
    32   29   30 ar   
    33   30   37 ar   
    34   30   31 1    
    35   33   34 1    
    36   33   35 ar   
    37   35   36 1    
    38   35   37 ar   
    39   37   38 1    
    40   38   39 1    
    41   39   40 ar   
    42   39   44 ar   
    43   40   43 1    
    44   40   41 ar   
    45   41   42 1    
    46   41   48 ar   
    47   44   45 1    
    48   44   46 ar   
    49   46   48 ar   
    50   46   47 1    
    51   48   49 1    
    52   49   50 2    
    53   49   51 1    
    54   51   54 1    
    55   51   52 1    
    56   51   53 1    
    57   54   56 am   BACKBONE|DICT|INTERRES
    58   54   55 1    
    59   56   58 1    
    60   56   57 2    
    61   58   59 1    
    62   58   60 1    
    63   60   63 1    
    64   60   62 1    
    65   60   61 1    
    66   63   64 ar   
    67   63   72 ar   
    68   64   66 ar   
    69   64   65 1    
    70   66   67 1    
    71   66   68 ar   
    72   68   69 1    
    73   68   70 ar   
    74   70   71 1    
    75   70   72 ar   
@<TRIPOS>SUBSTRUCTURE
     1 UNK         1 GROUP             0       ****    0 ROOT    
@<TRIPOS>MOLECULE
Cpd5-1500
72   75    1
SMALL
USER_CHARGES


@<TRIPOS>ATOM
      1 C1         41.6421   40.0839   34.2934 C.3       1 UNK         0.0000 
      2 H2         41.9884   39.9823   35.3287 H         1 UNK         0.0000 
      3 H3         42.2792   40.8166   33.7811 H         1 UNK         0.0000 
      4 H4         40.5984   40.4212   34.3059 H         1 UNK         0.0000 
      5 C5         41.6743   38.7913   33.4325 C.3       1 UNK         0.0000 
      6 C6         43.1291   38.2178   33.3531 C.3       1 UNK         0.0000 
      7 H7         43.5412   37.8785   34.3107 H         1 UNK         0.0000 
      8 H8         43.0087   37.3210   32.7342 H         1 UNK         0.0000 
      9 H9         43.8427   38.8580   32.8194 H         1 UNK         0.0000 
     10 C10        41.2577   39.0835   32.0003 C.3       1 UNK         0.0000 
     11 H11        41.9298   39.7340   31.4267 H         1 UNK         0.0000 
     12 H12        41.2511   38.2042   31.3454 H         1 UNK         0.0000 
     13 H13        40.2524   39.5237   32.0061 H         1 UNK         0.0000 
     14 O14        40.6968   37.9507   33.8706 O.3       1 UNK         0.0000 
     15 C15        40.8112   37.3454   35.0630 C.2       1 UNK         0.0000 
     16 O16        41.7543   37.3342   35.8386 O.2       1 UNK         0.0000 
     17 N17        39.5850   36.9444   35.3885 N.am      1 UNK         0.0000 
     18 H18        38.8665   37.1544   34.7057 H         1 UNK         0.0000 
     19 C19        39.1075   36.4956   36.6944 C.3       1 UNK         0.0000 
     20 C20        38.5920   35.0375   36.6033 C.2       1 UNK         0.0000 
     21 N21        38.2922   34.5192   35.3608 N.am      1 UNK         0.0000 
     22 H22        38.4317   35.0565   34.5134 H         1 UNK         0.0000 
     23 O23        38.5646   34.3251   37.5892 O.2       1 UNK         0.0000 
     24 H24        39.9855   36.3894   37.3430 H         1 UNK         0.0000 
     25 C25        37.9183   37.4274   37.1785 C.3       1 UNK         0.0000 
     26 H26        38.2293   38.4760   37.0909 H         1 UNK         0.0000 
     27 H27        37.6573   37.2053   38.2196 H         1 UNK         0.0000 
     28 C28        36.6340   37.3001   36.3801 C.ar      1 UNK         0.0000 
     29 C29        36.3691   38.0624   35.2708 C.ar      1 UNK         0.0000 
     30 C30        35.2329   37.7628   34.4365 C.ar      1 UNK         0.0000 
     31 H31        35.1872   38.2571   33.4709 H         1 UNK         0.0000 
     32 H32        37.0461   38.8799   35.0413 H         1 UNK         0.0000 
     33 C33        35.6855   36.3413   36.8002 C.ar      1 UNK         0.0000 
     34 H34        35.9895   35.7323   37.6472 H         1 UNK         0.0000 
     35 C35        34.4936   36.1046   36.1130 C.ar      1 UNK         0.0000 
     36 H36        33.7983   35.3152   36.3839 H         1 UNK         0.0000 
     37 C37        34.2770   36.8322   34.8991 C.ar      1 UNK         0.0000 
     38 O38        33.2674   36.4320   34.0655 O.3       1 UNK         0.0000 
     39 C39        33.5184   35.3512   33.2431 C.ar      1 UNK         0.0000 
     40 C40        32.8557   34.1361   33.5011 C.ar      1 UNK         0.0000 
     41 C41        33.2858   32.9299   32.9519 C.ar      1 UNK         0.0000 
     42 H42        32.8005   32.0295   33.3182 H         1 UNK         0.0000 
     43 H43        32.0272   34.1385   34.2032 H         1 UNK         0.0000 
     44 C44        34.5796   35.3805   32.3050 C.ar      1 UNK         0.0000 
     45 H45        35.0916   36.3282   32.1636 H         1 UNK         0.0000 
     46 C46        35.0119   34.1429   31.6572 C.ar      1 UNK         0.0000 
     47 H47        35.9572   34.1369   31.1235 H         1 UNK         0.0000 
     48 C48        34.4639   32.9255   32.0895 C.ar      1 UNK         0.0000 
     49 C49        35.1580   31.6336   31.9096 C.2       1 UNK         0.0000 
     50 O50        34.5425   30.6249   31.7867 O.2       1 UNK         0.0000 
     51 C51        36.6659   31.5371   31.8950 C.3       1 UNK         0.0000 
     52 H52        37.0307   30.5590   31.5576 H         1 UNK         0.0000 
     53 H53        37.1104   32.2648   31.2050 H         1 UNK         0.0000 
     54 N54        37.1295   31.7270   33.2759 N.am      1 UNK         0.0000 
     55 H55        36.9055   31.0452   33.9906 H         1 UNK         0.0000 
     56 C56        37.6342   32.9536   33.6729 C.2       1 UNK         0.0000 
     57 O57        38.0822   33.7289   32.8703 O.2       1 UNK         0.0000 
     58 C58        37.7301   33.2447   35.1544 C.3       1 UNK         0.0000 
     59 H59        38.3842   32.4814   35.5940 H         1 UNK         0.0000 
     60 C60        36.3093   33.0834   35.8732 C.3       1 UNK         0.0000 
     61 H61        35.4635   33.3121   35.2137 H         1 UNK         0.0000 
     62 H62        36.1603   33.6931   36.7727 H         1 UNK         0.0000 
     63 C63        36.0993   31.6155   36.2662 C.ar      1 UNK         0.0000 
     64 C64        36.8769   31.0751   37.3305 C.ar      1 UNK         0.0000 
     65 H65        37.5420   31.6823   37.9387 H         1 UNK         0.0000 
     66 C66        36.7269   29.7273   37.6211 C.ar      1 UNK         0.0000 
     67 H67        37.2505   29.2571   38.4476 H         1 UNK         0.0000 
     68 C68        35.8724   28.9845   36.8410 C.ar      1 UNK         0.0000 
     69 H69        35.9889   27.9077   36.9192 H         1 UNK         0.0000 
     70 C70        35.0845   29.5850   35.8537 C.ar      1 UNK         0.0000 
     71 H71        34.3230   29.0362   35.2999 H         1 UNK         0.0000 
     72 N72        35.2368   30.9178   35.5843 N.ar      1 UNK         0.0000 
@<TRIPOS>BOND
     1    1    4 1    
     2    1    2 1    
     3    1    3 1    
     4    1    5 1    
     5    5   14 1    
     6    5    6 1    
     7    5   10 1    
     8    6    7 1    
     9    6    8 1    
    10    6    9 1    
    11   10   13 1    
    12   10   11 1    
    13   10   12 1    
    14   14   15 1    
    15   15   17 am   BACKBONE|DICT|INTERRES
    16   15   16 2    
    17   17   19 1    
    18   17   18 1    
    19   19   25 1    
    20   19   24 1    
    21   19   20 1    
    22   20   23 2    
    23   20   21 am   BACKBONE|DICT|INTERRES
    24   21   22 1    
    25   21   58 1    
    26   25   27 1    
    27   25   26 1    
    28   25   28 1    
    29   28   33 ar   
    30   28   29 ar   
    31   29   30 ar   
    32   29   32 1    
    33   30   37 ar   
    34   30   31 1    
    35   33   34 1    
    36   33   35 ar   
    37   35   36 1    
    38   35   37 ar   
    39   37   38 1    
    40   38   39 1    
    41   39   40 ar   
    42   39   44 ar   
    43   40   43 1    
    44   40   41 ar   
    45   41   42 1    
    46   41   48 ar   
    47   44   45 1    
    48   44   46 ar   
    49   46   48 ar   
    50   46   47 1    
    51   48   49 1    
    52   49   50 2    
    53   49   51 1    
    54   51   54 1    
    55   51   52 1    
    56   51   53 1    
    57   54   56 am   BACKBONE|DICT|INTERRES
    58   54   55 1    
    59   56   58 1    
    60   56   57 2    
    61   58   59 1    
    62   58   60 1    
    63   60   63 1    
    64   60   62 1    
    65   60   61 1    
    66   63   64 ar   
    67   63   72 ar   
    68   64   66 ar   
    69   64   65 1    
    70   66   67 1    
    71   66   68 ar   
    72   68   69 1    
    73   68   70 ar   
    74   70   71 1    
    75   70   72 ar   
@<TRIPOS>SUBSTRUCTURE
     1 UNK         1 GROUP             0       ****    0 ROOT    
@<TRIPOS>MOLECULE
Cpd5-2000
72   75    1
SMALL
USER_CHARGES


@<TRIPOS>ATOM
      1 C1         41.5776   40.4059   33.9793 C.3       1 UNK         0.0000 
      2 H2         40.5729   40.8076   34.1564 H         1 UNK         0.0000 
      3 H3         42.0774   40.3815   34.9555 H         1 UNK         0.0000 
      4 H4         42.1380   41.0963   33.3374 H         1 UNK         0.0000 
      5 C5         41.6712   38.9535   33.4393 C.3       1 UNK         0.0000 
      6 C6         42.9108   38.2435   33.9936 C.3       1 UNK         0.0000 
      7 H7         43.8157   38.5516   33.4569 H         1 UNK         0.0000 
      8 H8         43.0393   38.4649   35.0599 H         1 UNK         0.0000 
      9 H9         42.7165   37.1676   33.9009 H         1 UNK         0.0000 
     10 C10        41.5253   39.0680   31.9032 C.3       1 UNK         0.0000 
     11 H11        42.2833   39.6178   31.3320 H         1 UNK         0.0000 
     12 H12        41.5712   38.0345   31.5386 H         1 UNK         0.0000 
     13 H13        40.4938   39.4146   31.7671 H         1 UNK         0.0000 
     14 O14        40.5174   38.2235   33.7724 O.3       1 UNK         0.0000 
     15 C15        40.1282   37.9654   35.0533 C.2       1 UNK         0.0000 
     16 O16        40.6724   38.4961   36.0452 O.2       1 UNK         0.0000 
     17 N17        39.3536   36.8886   35.1976 N.am      1 UNK         0.0000 
     18 H18        38.9189   36.4593   34.3893 H         1 UNK         0.0000 
     19 C19        39.0343   36.4698   36.5849 C.3       1 UNK         0.0000 
     20 C20        38.5345   34.9835   36.5614 C.2       1 UNK         0.0000 
     21 N21        37.9438   34.5466   35.4542 N.am      1 UNK         0.0000 
     22 H22        37.6487   35.2220   34.7584 H         1 UNK         0.0000 
     23 O23        38.7249   34.2146   37.4440 O.2       1 UNK         0.0000 
     24 H24        40.0014   36.5542   37.0952 H         1 UNK         0.0000 
     25 C25        37.9313   37.4362   37.1624 C.3       1 UNK         0.0000 
     26 H26        38.3458   38.4476   37.0718 H         1 UNK         0.0000 
     27 H27        37.8175   37.2422   38.2364 H         1 UNK         0.0000 
     28 C28        36.5625   37.3491   36.4553 C.ar      1 UNK         0.0000 
     29 C29        36.3329   38.1285   35.3109 C.ar      1 UNK         0.0000 
     30 C30        35.2485   37.8715   34.4722 C.ar      1 UNK         0.0000 
     31 H31        35.1400   38.2387   33.4553 H         1 UNK         0.0000 
     32 H32        37.0982   38.7706   34.8846 H         1 UNK         0.0000 
     33 C33        35.5483   36.3714   36.7738 C.ar      1 UNK         0.0000 
     34 H34        35.6278   35.7788   37.6811 H         1 UNK         0.0000 
     35 C35        34.4775   36.0720   35.9561 C.ar      1 UNK         0.0000 
     36 H36        33.8635   35.1861   36.0919 H         1 UNK         0.0000 
     37 C37        34.3056   36.8263   34.7928 C.ar      1 UNK         0.0000 
     38 O38        33.3436   36.4383   33.9281 O.3       1 UNK         0.0000 
     39 C39        33.6556   35.3436   33.3203 C.ar      1 UNK         0.0000 
     40 C40        33.0300   34.1703   33.6955 C.ar      1 UNK         0.0000 
     41 C41        33.4859   32.9600   33.1744 C.ar      1 UNK         0.0000 
     42 H42        32.9603   32.0385   33.4091 H         1 UNK         0.0000 
     43 H43        32.2350   34.0558   34.4266 H         1 UNK         0.0000 
     44 C44        34.6328   35.3200   32.3424 C.ar      1 UNK         0.0000 
     45 H45        35.0365   36.2899   32.0692 H         1 UNK         0.0000 
     46 C46        35.1355   34.0993   31.8033 C.ar      1 UNK         0.0000 
     47 H47        35.9324   34.1286   31.0656 H         1 UNK         0.0000 
     48 C48        34.5636   32.9047   32.2127 C.ar      1 UNK         0.0000 
     49 C49        35.1660   31.6141   31.8244 C.2       1 UNK         0.0000 
     50 O50        34.4854   30.6347   31.7738 O.2       1 UNK         0.0000 
     51 C51        36.6801   31.5277   31.7823 C.3       1 UNK         0.0000 
     52 H52        37.1062   30.6359   31.3070 H         1 UNK         0.0000 
     53 H53        37.1130   32.3185   31.1581 H         1 UNK         0.0000 
     54 N54        37.1989   31.7261   33.2000 N.am      1 UNK         0.0000 
     55 H55        36.9125   31.0978   33.9410 H         1 UNK         0.0000 
     56 C56        37.6031   32.9382   33.6570 C.2       1 UNK         0.0000 
     57 O57        37.9129   33.8358   32.8877 O.2       1 UNK         0.0000 
     58 C58        37.5545   33.1736   35.1342 C.3       1 UNK         0.0000 
     59 H59        38.3283   32.5013   35.5245 H         1 UNK         0.0000 
     60 C60        36.1772   32.8353   35.8313 C.3       1 UNK         0.0000 
     61 H61        35.3410   33.2732   35.2725 H         1 UNK         0.0000 
     62 H62        36.1640   33.2894   36.8301 H         1 UNK         0.0000 
     63 C63        36.0303   31.2914   35.9740 C.ar      1 UNK         0.0000 
     64 C64        36.9149   30.6925   36.8277 C.ar      1 UNK         0.0000 
     65 H65        37.7868   31.2245   37.1963 H         1 UNK         0.0000 
     66 C66        36.7339   29.3263   37.0980 C.ar      1 UNK         0.0000 
     67 H67        37.5459   28.8363   37.6278 H         1 UNK         0.0000 
     68 C68        35.5784   28.6537   36.6213 C.ar      1 UNK         0.0000 
     69 H69        35.4346   27.5850   36.7510 H         1 UNK         0.0000 
     70 C70        34.6561   29.4389   35.8603 C.ar      1 UNK         0.0000 
     71 H71        33.8092   28.9836   35.3499 H         1 UNK         0.0000 
     72 N72        34.8821   30.7592   35.5386 N.ar      1 UNK         0.0000 
@<TRIPOS>BOND
     1    1    2 1    
     2    1    3 1    
     3    1    4 1    
     4    1    5 1    
     5    5   14 1    
     6    5    6 1    
     7    5   10 1    
     8    6    8 1    
     9    6    7 1    
    10    6    9 1    
    11   10   11 1    
    12   10   12 1    
    13   10   13 1    
    14   14   15 1    
    15   15   17 am   BACKBONE|DICT|INTERRES
    16   15   16 2    
    17   17   19 1    
    18   17   18 1    
    19   19   20 1    
    20   19   24 1    
    21   19   25 1    
    22   20   23 2    
    23   20   21 am   BACKBONE|DICT|INTERRES
    24   21   22 1    
    25   21   58 1    
    26   25   27 1    
    27   25   26 1    
    28   25   28 1    
    29   28   33 ar   
    30   28   29 ar   
    31   29   30 ar   
    32   29   32 1    
    33   30   37 ar   
    34   30   31 1    
    35   33   34 1    
    36   33   35 ar   
    37   35   36 1    
    38   35   37 ar   
    39   37   38 1    
    40   38   39 1    
    41   39   40 ar   
    42   39   44 ar   
    43   40   43 1    
    44   40   41 ar   
    45   41   42 1    
    46   41   48 ar   
    47   44   45 1    
    48   44   46 ar   
    49   46   48 ar   
    50   46   47 1    
    51   48   49 1    
    52   49   50 2    
    53   49   51 1    
    54   51   54 1    
    55   51   52 1    
    56   51   53 1    
    57   54   56 am   BACKBONE|DICT|INTERRES
    58   54   55 1    
    59   56   58 1    
    60   56   57 2    
    61   58   59 1    
    62   58   60 1    
    63   60   63 1    
    64   60   62 1    
    65   60   61 1    
    66   63   64 ar   
    67   63   72 ar   
    68   64   66 ar   
    69   64   65 1    
    70   66   67 1    
    71   66   68 ar   
    72   68   69 1    
    73   68   70 ar   
    74   70   71 1    
    75   70   72 ar   
@<TRIPOS>SUBSTRUCTURE
     1 UNK         1 GROUP             0       ****    0 ROOT    
@<TRIPOS>MOLECULE
Cpd5-2500
72   75    1
SMALL
USER_CHARGES


@<TRIPOS>ATOM
      1 C1         40.1483   40.7038   33.8714 C.3       1 UNK         0.0000 
      2 H2         40.4668   40.6427   34.9190 H         1 UNK         0.0000 
      3 H3         40.3928   41.6717   33.4158 H         1 UNK         0.0000 
      4 H4         39.0515   40.7108   33.8472 H         1 UNK         0.0000 
      5 C5         40.6071   39.4760   33.0793 C.3       1 UNK         0.0000 
      6 C6         42.1156   39.3513   33.1579 C.3       1 UNK         0.0000 
      7 H7         42.5463   40.1657   32.5620 H         1 UNK         0.0000 
      8 H8         42.4876   39.3828   34.1894 H         1 UNK         0.0000 
      9 H9         42.2468   38.4347   32.5698 H         1 UNK         0.0000 
     10 C10        40.2236   39.6072   31.6564 C.3       1 UNK         0.0000 
     11 H11        39.1738   39.8869   31.5047 H         1 UNK         0.0000 
     12 H12        40.8435   40.4350   31.2905 H         1 UNK         0.0000 
     13 H13        40.4705   38.7020   31.0875 H         1 UNK         0.0000 
     14 O14        40.0293   38.2797   33.6953 O.3       1 UNK         0.0000 
     15 C15        40.1708   38.0269   34.9731 C.2       1 UNK         0.0000 
     16 O16        40.8477   38.4804   35.8903 O.2       1 UNK         0.0000 
     17 N17        39.4294   36.9022   35.2433 N.am      1 UNK         0.0000 
     18 H18        39.2930   36.3418   34.4115 H         1 UNK         0.0000 
     19 C19        39.0268   36.4840   36.5914 C.3       1 UNK         0.0000 
     20 C20        38.5301   35.0521   36.6020 C.2       1 UNK         0.0000 
     21 N21        37.9772   34.5279   35.4392 N.am      1 UNK         0.0000 
     22 H22        37.9265   35.1949   34.6787 H         1 UNK         0.0000 
     23 O23        38.7935   34.3052   37.5465 O.2       1 UNK         0.0000 
     24 H24        39.9061   36.5555   37.2440 H         1 UNK         0.0000 
     25 C25        37.9575   37.4491   37.1231 C.3       1 UNK         0.0000 
     26 H26        38.3958   38.4529   37.1947 H         1 UNK         0.0000 
     27 H27        37.7403   37.2358   38.1769 H         1 UNK         0.0000 
     28 C28        36.6268   37.4066   36.4070 C.ar      1 UNK         0.0000 
     29 C29        36.4414   38.0497   35.1584 C.ar      1 UNK         0.0000 
     30 C30        35.2505   37.8559   34.4597 C.ar      1 UNK         0.0000 
     31 H31        35.1015   38.3244   33.4910 H         1 UNK         0.0000 
     32 H32        37.3090   38.6098   34.8212 H         1 UNK         0.0000 
     33 C33        35.5887   36.5680   36.9256 C.ar      1 UNK         0.0000 
     34 H34        35.6987   36.0437   37.8704 H         1 UNK         0.0000 
     35 C35        34.3739   36.3398   36.2320 C.ar      1 UNK         0.0000 
     36 H36        33.7231   35.5676   36.6309 H         1 UNK         0.0000 
     37 C37        34.2808   36.9205   34.9293 C.ar      1 UNK         0.0000 
     38 O38        33.3014   36.4245   34.0687 O.3       1 UNK         0.0000 
     39 C39        33.5657   35.2927   33.2595 C.ar      1 UNK         0.0000 
     40 C40        32.8806   34.1272   33.5585 C.ar      1 UNK         0.0000 
     41 C41        33.3346   32.8416   33.0019 C.ar      1 UNK         0.0000 
     42 H42        32.7843   31.9259   33.1989 H         1 UNK         0.0000 
     43 H43        32.0065   34.1240   34.2026 H         1 UNK         0.0000 
     44 C44        34.6863   35.2410   32.4288 C.ar      1 UNK         0.0000 
     45 H45        35.2909   36.1249   32.2477 H         1 UNK         0.0000 
     46 C46        35.2281   34.0402   31.9526 C.ar      1 UNK         0.0000 
     47 H47        36.1134   33.9728   31.3267 H         1 UNK         0.0000 
     48 C48        34.5248   32.8209   32.2815 C.ar      1 UNK         0.0000 
     49 C49        35.1336   31.5430   31.8125 C.2       1 UNK         0.0000 
     50 O50        34.4512   30.6674   31.2658 O.2       1 UNK         0.0000 
     51 C51        36.6764   31.3809   31.7973 C.3       1 UNK         0.0000 
     52 H52        36.8585   30.3197   31.5841 H         1 UNK         0.0000 
     53 H53        37.1018   31.9722   30.9774 H         1 UNK         0.0000 
     54 N54        37.2739   31.6710   33.1754 N.am      1 UNK         0.0000 
     55 H55        37.3798   30.9041   33.8282 H         1 UNK         0.0000 
     56 C56        37.5936   32.9595   33.6165 C.2       1 UNK         0.0000 
     57 O57        38.0267   33.8538   32.9051 O.2       1 UNK         0.0000 
     58 C58        37.5680   33.1336   35.1657 C.3       1 UNK         0.0000 
     59 H59        38.2664   32.4910   35.7159 H         1 UNK         0.0000 
     60 C60        36.2127   32.9297   35.8098 C.3       1 UNK         0.0000 
     61 H61        35.4383   33.3782   35.1771 H         1 UNK         0.0000 
     62 H62        36.1494   33.5224   36.7311 H         1 UNK         0.0000 
     63 C63        35.9962   31.4589   36.1306 C.ar      1 UNK         0.0000 
     64 C64        36.5917   30.9106   37.2605 C.ar      1 UNK         0.0000 
     65 H65        37.1827   31.5499   37.9106 H         1 UNK         0.0000 
     66 C66        36.3331   29.5898   37.6143 C.ar      1 UNK         0.0000 
     67 H67        36.6313   29.1679   38.5700 H         1 UNK         0.0000 
     68 C68        35.4812   28.8978   36.7679 C.ar      1 UNK         0.0000 
     69 H69        35.1885   27.8782   36.9968 H         1 UNK         0.0000 
     70 C70        34.9951   29.4802   35.5965 C.ar      1 UNK         0.0000 
     71 H71        34.2707   29.0009   34.9399 H         1 UNK         0.0000 
     72 N72        35.1684   30.7732   35.2829 N.ar      1 UNK         0.0000 
@<TRIPOS>BOND
     1    1    2 1    
     2    1    3 1    
     3    1    4 1    
     4    1    5 1    
     5    5    6 1    
     6    5   14 1    
     7    5   10 1    
     8    6    8 1    
     9    6    7 1    
    10    6    9 1    
    11   10   11 1    
    12   10   12 1    
    13   10   13 1    
    14   14   15 1    
    15   15   17 am   BACKBONE|DICT|INTERRES
    16   15   16 2    
    17   17   19 1    
    18   17   18 1    
    19   19   20 1    
    20   19   25 1    
    21   19   24 1    
    22   20   23 2    
    23   20   21 am   BACKBONE|DICT|INTERRES
    24   21   22 1    
    25   21   58 1    
    26   25   26 1    
    27   25   27 1    
    28   25   28 1    
    29   28   33 ar   
    30   28   29 ar   
    31   29   30 ar   
    32   29   32 1    
    33   30   37 ar   
    34   30   31 1    
    35   33   34 1    
    36   33   35 ar   
    37   35   36 1    
    38   35   37 ar   
    39   37   38 1    
    40   38   39 1    
    41   39   40 ar   
    42   39   44 ar   
    43   40   43 1    
    44   40   41 ar   
    45   41   42 1    
    46   41   48 ar   
    47   44   45 1    
    48   44   46 ar   
    49   46   48 ar   
    50   46   47 1    
    51   48   49 1    
    52   49   51 1    
    53   49   50 2    
    54   51   54 1    
    55   51   52 1    
    56   51   53 1    
    57   54   56 am   BACKBONE|DICT|INTERRES
    58   54   55 1    
    59   56   58 1    
    60   56   57 2    
    61   58   59 1    
    62   58   60 1    
    63   60   63 1    
    64   60   62 1    
    65   60   61 1    
    66   63   64 ar   
    67   63   72 ar   
    68   64   66 ar   
    69   64   65 1    
    70   66   67 1    
    71   66   68 ar   
    72   68   69 1    
    73   68   70 ar   
    74   70   71 1    
    75   70   72 ar   
@<TRIPOS>SUBSTRUCTURE
     1 UNK         1 GROUP             0       ****    0 ROOT    
@<TRIPOS>MOLECULE
Cpd5-3000
72   75    1
SMALL
USER_CHARGES


@<TRIPOS>ATOM
      1 C1         41.3387   40.7521   34.3770 C.3       1 UNK         0.0000 
      2 H2         41.2195   40.8055   35.4656 H         1 UNK         0.0000 
      3 H3         42.0435   41.5339   34.0701 H         1 UNK         0.0000 
      4 H4         40.3480   41.0380   34.0024 H         1 UNK         0.0000 
      5 C5         41.7855   39.4033   33.9014 C.3       1 UNK         0.0000 
      6 C6         43.1741   38.9680   34.2846 C.3       1 UNK         0.0000 
      7 H7         43.2389   38.0611   33.6717 H         1 UNK         0.0000 
      8 H8         43.8626   39.7474   33.9347 H         1 UNK         0.0000 
      9 H9         43.2689   38.6954   35.3430 H         1 UNK         0.0000 
     10 C10        41.5425   39.3059   32.4132 C.3       1 UNK         0.0000 
     11 H11        40.5453   39.6538   32.1190 H         1 UNK         0.0000 
     12 H12        42.3152   39.9345   31.9550 H         1 UNK         0.0000 
     13 H13        41.6767   38.2887   32.0235 H         1 UNK         0.0000 
     14 O14        40.8484   38.4519   34.3217 O.3       1 UNK         0.0000 
     15 C15        40.5454   38.1959   35.6407 C.2       1 UNK         0.0000 
     16 O16        41.1311   38.6210   36.6383 O.2       1 UNK         0.0000 
     17 N17        39.6105   37.2057   35.6989 N.am      1 UNK         0.0000 
     18 H18        39.3430   37.0166   34.7409 H         1 UNK         0.0000 
     19 C19        39.0878   36.5767   36.9053 C.3       1 UNK         0.0000 
     20 C20        38.7082   35.0595   36.6916 C.2       1 UNK         0.0000 
     21 N21        38.1671   34.7008   35.4253 N.am      1 UNK         0.0000 
     22 H22        38.0748   35.4452   34.7438 H         1 UNK         0.0000 
     23 O23        39.0555   34.2304   37.5570 O.2       1 UNK         0.0000 
     24 H24        39.7500   36.5533   37.7800 H         1 UNK         0.0000 
     25 C25        37.7829   37.2904   37.4120 C.3       1 UNK         0.0000 
     26 H26        38.0229   38.3508   37.5524 H         1 UNK         0.0000 
     27 H27        37.5095   36.9729   38.4262 H         1 UNK         0.0000 
     28 C28        36.5284   37.1148   36.3971 C.ar      1 UNK         0.0000 
     29 C29        36.4307   38.0337   35.2986 C.ar      1 UNK         0.0000 
     30 C30        35.3126   37.8825   34.4434 C.ar      1 UNK         0.0000 
     31 H31        35.2274   38.5759   33.6119 H         1 UNK         0.0000 
     32 H32        37.1439   38.8464   35.1957 H         1 UNK         0.0000 
     33 C33        35.5701   36.1594   36.7482 C.ar      1 UNK         0.0000 
     34 H34        35.6382   35.5221   37.6242 H         1 UNK         0.0000 
     35 C35        34.4525   36.0363   35.8691 C.ar      1 UNK         0.0000 
     36 H36        33.6770   35.2768   35.9021 H         1 UNK         0.0000 
     37 C37        34.2905   36.8683   34.7200 C.ar      1 UNK         0.0000 
     38 O38        33.3610   36.6188   33.7905 O.3       1 UNK         0.0000 
     39 C39        33.5336   35.4223   33.1449 C.ar      1 UNK         0.0000 
     40 C40        32.8513   34.2502   33.5513 C.ar      1 UNK         0.0000 
     41 C41        33.3013   32.9464   33.0767 C.ar      1 UNK         0.0000 
     42 H42        32.7155   32.0890   33.3951 H         1 UNK         0.0000 
     43 H43        31.9639   34.3188   34.1737 H         1 UNK         0.0000 
     44 C44        34.6615   35.2323   32.3386 C.ar      1 UNK         0.0000 
     45 H45        35.1868   36.1035   31.9557 H         1 UNK         0.0000 
     46 C46        34.9804   34.0099   31.7519 C.ar      1 UNK         0.0000 
     47 H47        35.8603   34.0155   31.1151 H         1 UNK         0.0000 
     48 C48        34.3675   32.8396   32.1796 C.ar      1 UNK         0.0000 
     49 C49        35.0493   31.5417   31.9275 C.2       1 UNK         0.0000 
     50 O50        34.4391   30.4549   31.9219 O.2       1 UNK         0.0000 
     51 C51        36.6177   31.5367   31.9289 C.3       1 UNK         0.0000 
     52 H52        36.9752   30.5877   31.5114 H         1 UNK         0.0000 
     53 H53        36.9558   32.3439   31.2671 H         1 UNK         0.0000 
     54 N54        37.2385   31.8244   33.1910 N.am      1 UNK         0.0000 
     55 H55        37.2064   31.1126   33.9121 H         1 UNK         0.0000 
     56 C56        37.6785   33.0563   33.5622 C.2       1 UNK         0.0000 
     57 O57        37.9324   33.9864   32.7743 O.2       1 UNK         0.0000 
     58 C58        37.6935   33.2833   35.0971 C.3       1 UNK         0.0000 
     59 H59        38.4587   32.7244   35.6504 H         1 UNK         0.0000 
     60 C60        36.3310   32.9457   35.7879 C.3       1 UNK         0.0000 
     61 H61        35.4491   33.2333   35.2011 H         1 UNK         0.0000 
     62 H62        36.3259   33.3308   36.8152 H         1 UNK         0.0000 
     63 C63        36.0957   31.4548   35.9849 C.ar      1 UNK         0.0000 
     64 C64        36.8888   30.7988   36.8992 C.ar      1 UNK         0.0000 
     65 H65        37.6340   31.3843   37.4299 H         1 UNK         0.0000 
     66 C66        36.7998   29.4982   37.0918 C.ar      1 UNK         0.0000 
     67 H67        37.4232   28.9200   37.7679 H         1 UNK         0.0000 
     68 C68        35.8254   28.8054   36.4087 C.ar      1 UNK         0.0000 
     69 H69        35.6122   27.7468   36.5221 H         1 UNK         0.0000 
     70 C70        35.0953   29.5400   35.4103 C.ar      1 UNK         0.0000 
     71 H71        34.2770   29.0438   34.8909 H         1 UNK         0.0000 
     72 N72        35.1937   30.8691   35.1963 N.ar      1 UNK         0.0000 
@<TRIPOS>BOND
     1    1    2 1    
     2    1    3 1    
     3    1    4 1    
     4    1    5 1    
     5    5    6 1    
     6    5   14 1    
     7    5   10 1    
     8    6    9 1    
     9    6    7 1    
    10    6    8 1    
    11   10   11 1    
    12   10   12 1    
    13   10   13 1    
    14   14   15 1    
    15   15   17 am   BACKBONE|DICT|INTERRES
    16   15   16 2    
    17   17   19 1    
    18   17   18 1    
    19   19   25 1    
    20   19   24 1    
    21   19   20 1    
    22   20   23 2    
    23   20   21 am   BACKBONE|DICT|INTERRES
    24   21   22 1    
    25   21   58 1    
    26   25   26 1    
    27   25   27 1    
    28   25   28 1    
    29   28   33 ar   
    30   28   29 ar   
    31   29   30 ar   
    32   29   32 1    
    33   30   37 ar   
    34   30   31 1    
    35   33   34 1    
    36   33   35 ar   
    37   35   36 1    
    38   35   37 ar   
    39   37   38 1    
    40   38   39 1    
    41   39   40 ar   
    42   39   44 ar   
    43   40   43 1    
    44   40   41 ar   
    45   41   42 1    
    46   41   48 ar   
    47   44   45 1    
    48   44   46 ar   
    49   46   48 ar   
    50   46   47 1    
    51   48   49 1    
    52   49   50 2    
    53   49   51 1    
    54   51   54 1    
    55   51   52 1    
    56   51   53 1    
    57   54   56 am   BACKBONE|DICT|INTERRES
    58   54   55 1    
    59   56   58 1    
    60   56   57 2    
    61   58   59 1    
    62   58   60 1    
    63   60   63 1    
    64   60   62 1    
    65   60   61 1    
    66   63   64 ar   
    67   63   72 ar   
    68   64   66 ar   
    69   64   65 1    
    70   66   67 1    
    71   66   68 ar   
    72   68   69 1    
    73   68   70 ar   
    74   70   71 1    
    75   70   72 ar   
@<TRIPOS>SUBSTRUCTURE
     1 UNK         1 GROUP             0       ****    0 ROOT    
@<TRIPOS>MOLECULE
Cpd5-3500
72   75    1
SMALL
USER_CHARGES


@<TRIPOS>ATOM
      1 C1         41.7745   40.3586   33.7812 C.3       1 UNK         0.0000 
      2 H2         40.7696   40.4992   33.3641 H         1 UNK         0.0000 
      3 H3         41.8665   40.6167   34.8429 H         1 UNK         0.0000 
      4 H4         42.4586   41.0740   33.3104 H         1 UNK         0.0000 
      5 C5         42.1599   38.9051   33.4810 C.3       1 UNK         0.0000 
      6 C6         43.4974   38.6479   34.2062 C.3       1 UNK         0.0000 
      7 H7         44.2403   39.4469   34.0987 H         1 UNK         0.0000 
      8 H8         43.3371   38.5077   35.2815 H         1 UNK         0.0000 
      9 H9         43.8936   37.6982   33.8271 H         1 UNK         0.0000 
     10 C10        42.3040   38.6533   31.9883 C.3       1 UNK         0.0000 
     11 H11        43.1897   39.1513   31.5746 H         1 UNK         0.0000 
     12 H12        42.3112   37.5637   31.8691 H         1 UNK         0.0000 
     13 H13        41.4864   39.1532   31.4554 H         1 UNK         0.0000 
     14 O14        40.9824   38.1657   33.8800 O.3       1 UNK         0.0000 
     15 C15        40.4095   38.1511   35.1671 C.2       1 UNK         0.0000 
     16 O16        40.8278   38.8685   36.0880 O.2       1 UNK         0.0000 
     17 N17        39.5281   37.1199   35.2846 N.am      1 UNK         0.0000 
     18 H18        39.7418   36.4905   34.5205 H         1 UNK         0.0000 
     19 C19        39.0061   36.6734   36.6118 C.3       1 UNK         0.0000 
     20 C20        38.6344   35.1698   36.5999 C.2       1 UNK         0.0000 
     21 N21        38.2392   34.6480   35.4002 N.am      1 UNK         0.0000 
     22 H22        37.9649   35.2703   34.6498 H         1 UNK         0.0000 
     23 O23        38.7044   34.4753   37.6410 O.2       1 UNK         0.0000 
     24 H24        39.8239   36.7366   37.3403 H         1 UNK         0.0000 
     25 C25        37.8545   37.4097   37.2009 C.3       1 UNK         0.0000 
     26 H26        38.0598   38.4870   37.2249 H         1 UNK         0.0000 
     27 H27        37.6286   37.1262   38.2364 H         1 UNK         0.0000 
     28 C28        36.6223   37.2509   36.3967 C.ar      1 UNK         0.0000 
     29 C29        36.4804   37.8995   35.1741 C.ar      1 UNK         0.0000 
     30 C30        35.3799   37.5451   34.3943 C.ar      1 UNK         0.0000 
     31 H31        35.2450   38.0626   33.4493 H         1 UNK         0.0000 
     32 H32        37.3017   38.4736   34.7577 H         1 UNK         0.0000 
     33 C33        35.4654   36.5731   36.9694 C.ar      1 UNK         0.0000 
     34 H34        35.4016   36.1392   37.9626 H         1 UNK         0.0000 
     35 C35        34.3512   36.3329   36.2115 C.ar      1 UNK         0.0000 
     36 H36        33.5036   35.7705   36.5903 H         1 UNK         0.0000 
     37 C37        34.3205   36.7524   34.8919 C.ar      1 UNK         0.0000 
     38 O38        33.3290   36.4668   34.0254 O.3       1 UNK         0.0000 
     39 C39        33.5300   35.3180   33.3075 C.ar      1 UNK         0.0000 
     40 C40        32.8349   34.1077   33.5818 C.ar      1 UNK         0.0000 
     41 C41        33.1971   32.9250   32.9190 C.ar      1 UNK         0.0000 
     42 H42        32.5729   32.0388   32.9818 H         1 UNK         0.0000 
     43 H43        32.0468   34.0549   34.3273 H         1 UNK         0.0000 
     44 C44        34.5681   35.3137   32.3523 C.ar      1 UNK         0.0000 
     45 H45        35.0225   36.2239   31.9729 H         1 UNK         0.0000 
     46 C46        35.1071   34.1261   31.9370 C.ar      1 UNK         0.0000 
     47 H47        36.0028   34.2067   31.3289 H         1 UNK         0.0000 
     48 C48        34.4450   32.9136   32.2528 C.ar      1 UNK         0.0000 
     49 C49        35.0050   31.6286   31.7795 C.2       1 UNK         0.0000 
     50 O50        34.4156   30.7193   31.2537 O.2       1 UNK         0.0000 
     51 C51        36.5776   31.4739   31.8332 C.3       1 UNK         0.0000 
     52 H52        36.7824   30.4992   31.3738 H         1 UNK         0.0000 
     53 H53        37.0718   32.1595   31.1331 H         1 UNK         0.0000 
     54 N54        37.1714   31.5951   33.2231 N.am      1 UNK         0.0000 
     55 H55        36.8030   30.9242   33.8864 H         1 UNK         0.0000 
     56 C56        37.8001   32.7977   33.6769 C.2       1 UNK         0.0000 
     57 O57        38.2596   33.6240   32.8570 O.2       1 UNK         0.0000 
     58 C58        37.7930   33.2164   35.2131 C.3       1 UNK         0.0000 
     59 H59        38.5516   32.6101   35.7238 H         1 UNK         0.0000 
     60 C60        36.3899   33.1593   35.8588 C.3       1 UNK         0.0000 
     61 H61        35.6191   33.5620   35.1900 H         1 UNK         0.0000 
     62 H62        36.2073   33.8386   36.7003 H         1 UNK         0.0000 
     63 C63        35.9868   31.7537   36.3189 C.ar      1 UNK         0.0000 
     64 C64        36.8094   30.9775   37.1446 C.ar      1 UNK         0.0000 
     65 H65        37.7122   31.4197   37.5550 H         1 UNK         0.0000 
     66 C66        36.6004   29.6781   37.3638 C.ar      1 UNK         0.0000 
     67 H67        37.1764   29.1616   38.1264 H         1 UNK         0.0000 
     68 C68        35.4644   29.1067   36.7856 C.ar      1 UNK         0.0000 
     69 H69        35.2144   28.0732   37.0058 H         1 UNK         0.0000 
     70 C70        34.7019   29.9842   35.9272 C.ar      1 UNK         0.0000 
     71 H71        33.8065   29.5962   35.4438 H         1 UNK         0.0000 
     72 N72        34.9184   31.3078   35.7469 N.ar      1 UNK         0.0000 
@<TRIPOS>BOND
     1    1    3 1    
     2    1    2 1    
     3    1    4 1    
     4    1    5 1    
     5    5   14 1    
     6    5    6 1    
     7    5   10 1    
     8    6    8 1    
     9    6    7 1    
    10    6    9 1    
    11   10   11 1    
    12   10   12 1    
    13   10   13 1    
    14   14   15 1    
    15   15   17 am   BACKBONE|DICT|INTERRES
    16   15   16 2    
    17   17   19 1    
    18   17   18 1    
    19   19   25 1    
    20   19   24 1    
    21   19   20 1    
    22   20   23 2    
    23   20   21 am   BACKBONE|DICT|INTERRES
    24   21   22 1    
    25   21   58 1    
    26   25   26 1    
    27   25   27 1    
    28   25   28 1    
    29   28   33 ar   
    30   28   29 ar   
    31   29   30 ar   
    32   29   32 1    
    33   30   37 ar   
    34   30   31 1    
    35   33   34 1    
    36   33   35 ar   
    37   35   36 1    
    38   35   37 ar   
    39   37   38 1    
    40   38   39 1    
    41   39   40 ar   
    42   39   44 ar   
    43   40   43 1    
    44   40   41 ar   
    45   41   42 1    
    46   41   48 ar   
    47   44   45 1    
    48   44   46 ar   
    49   46   48 ar   
    50   46   47 1    
    51   48   49 1    
    52   49   50 2    
    53   49   51 1    
    54   51   54 1    
    55   51   52 1    
    56   51   53 1    
    57   54   56 am   BACKBONE|DICT|INTERRES
    58   54   55 1    
    59   56   58 1    
    60   56   57 2    
    61   58   59 1    
    62   58   60 1    
    63   60   63 1    
    64   60   62 1    
    65   60   61 1    
    66   63   64 ar   
    67   63   72 ar   
    68   64   66 ar   
    69   64   65 1    
    70   66   67 1    
    71   66   68 ar   
    72   68   69 1    
    73   68   70 ar   
    74   70   71 1    
    75   70   72 ar   
@<TRIPOS>SUBSTRUCTURE
     1 UNK         1 GROUP             0       ****    0 ROOT    
@<TRIPOS>MOLECULE
Cpd5-4000-MEC-MRC
72   75    1
SMALL
USER_CHARGES


@<TRIPOS>ATOM
      1 C1         42.5586   38.1236   32.4614 C.3       1 UNK         0.0000 
      2 H2         43.3664   38.0641   31.7211 H         1 UNK         0.0000 
      3 H3         42.1311   39.1327   32.5095 H         1 UNK         0.0000 
      4 H4         42.9995   37.8434   33.4259 H         1 UNK         0.0000 
      5 C5         41.4249   37.1323   32.2003 C.3       1 UNK         0.0000 
      6 C6         41.9804   35.7019   32.3863 C.3       1 UNK         0.0000 
      7 H7         42.5621   35.2226   31.5893 H         1 UNK         0.0000 
      8 H8         42.5739   35.6020   33.3035 H         1 UNK         0.0000 
      9 H9         41.1019   35.0915   32.6264 H         1 UNK         0.0000 
     10 C10        40.9795   37.3789   30.7495 C.3       1 UNK         0.0000 
     11 H11        40.7532   38.4524   30.7432 H         1 UNK         0.0000 
     12 H12        41.8365   37.1820   30.0946 H         1 UNK         0.0000 
     13 H13        40.1450   36.7419   30.4317 H         1 UNK         0.0000 
     14 O14        40.2754   37.3257   33.1066 O.3       1 UNK         0.0000 
     15 C15        40.3873   37.1881   34.4377 C.2       1 UNK         0.0000 
     16 O16        41.4433   37.0325   35.0036 O.2       1 UNK         0.0000 
     17 N17        39.1336   37.0360   35.0048 N.am      1 UNK         0.0000 
     18 H18        38.3402   37.3334   34.4487 H         1 UNK         0.0000 
     19 C19        38.9533   36.5687   36.3848 C.3       1 UNK         0.0000 
     20 C20        38.6121   35.0681   36.4549 C.2       1 UNK         0.0000 
     21 N21        38.2469   34.4995   35.2756 N.am      1 UNK         0.0000 
     22 H22        38.3091   34.9778   34.3851 H         1 UNK         0.0000 
     23 O23        38.6103   34.4534   37.5106 O.2       1 UNK         0.0000 
     24 H24        39.9455   36.5916   36.8533 H         1 UNK         0.0000 
     25 C25        37.8638   37.3096   37.1304 C.3       1 UNK         0.0000 
     26 H26        38.1901   38.3569   37.1398 H         1 UNK         0.0000 
     27 H27        37.8329   36.9359   38.1616 H         1 UNK         0.0000 
     28 C28        36.5148   37.2400   36.4451 C.ar      1 UNK         0.0000 
     29 C29        36.2699   38.1468   35.3631 C.ar      1 UNK         0.0000 
     30 C30        35.1138   37.9596   34.5933 C.ar      1 UNK         0.0000 
     31 H31        35.1012   38.5450   33.6787 H         1 UNK         0.0000 
     32 H32        37.0632   38.8354   35.0870 H         1 UNK         0.0000 
     33 C33        35.5442   36.2720   36.7547 C.ar      1 UNK         0.0000 
     34 H34        35.7137   35.5409   37.5389 H         1 UNK         0.0000 
     35 C35        34.3571   36.1071   36.0638 C.ar      1 UNK         0.0000 
     36 H36        33.6868   35.2794   36.2790 H         1 UNK         0.0000 
     37 C37        34.1951   36.9129   34.9487 C.ar      1 UNK         0.0000 
     38 O38        33.3107   36.5949   33.9136 O.3       1 UNK         0.0000 
     39 C39        33.5727   35.4270   33.2298 C.ar      1 UNK         0.0000 
     40 C40        32.8082   34.2452   33.4651 C.ar      1 UNK         0.0000 
     41 C41        33.3195   32.9948   33.0317 C.ar      1 UNK         0.0000 
     42 H42        32.8334   32.0442   33.2287 H         1 UNK         0.0000 
     43 H43        31.9527   34.3807   34.1195 H         1 UNK         0.0000 
     44 C44        34.7880   35.3256   32.5300 C.ar      1 UNK         0.0000 
     45 H45        35.4047   36.2176   32.4685 H         1 UNK         0.0000 
     46 C46        35.2963   34.1500   32.0758 C.ar      1 UNK         0.0000 
     47 H47        36.2284   34.0789   31.5222 H         1 UNK         0.0000 
     48 C48        34.5317   32.9580   32.2999 C.ar      1 UNK         0.0000 
     49 C49        35.1009   31.6322   31.8634 C.2       1 UNK         0.0000 
     50 O50        34.3926   30.6077   31.6471 O.2       1 UNK         0.0000 
     51 C51        36.6248   31.4585   31.8714 C.3       1 UNK         0.0000 
     52 H52        36.7269   30.4526   31.4454 H         1 UNK         0.0000 
     53 H53        37.1381   32.2008   31.2487 H         1 UNK         0.0000 
     54 N54        37.2221   31.5840   33.2343 N.am      1 UNK         0.0000 
     55 H55        36.8921   30.9043   33.9084 H         1 UNK         0.0000 
     56 C56        37.7799   32.7729   33.6161 C.2       1 UNK         0.0000 
     57 O57        38.3044   33.5527   32.8375 O.2       1 UNK         0.0000 
     58 C58        37.7590   33.1147   35.1635 C.3       1 UNK         0.0000 
     59 H59        38.5447   32.5373   35.6681 H         1 UNK         0.0000 
     60 C60        36.3946   32.9151   35.8210 C.3       1 UNK         0.0000 
     61 H61        35.5789   33.2969   35.1950 H         1 UNK         0.0000 
     62 H62        36.3156   33.5374   36.7213 H         1 UNK         0.0000 
     63 C63        35.9710   31.5594   36.3032 C.ar      1 UNK         0.0000 
     64 C64        36.7200   30.9313   37.2889 C.ar      1 UNK         0.0000 
     65 H65        37.6666   31.3941   37.5525 H         1 UNK         0.0000 
     66 C66        36.4439   29.6245   37.7964 C.ar      1 UNK         0.0000 
     67 H67        37.0036   29.1333   38.5861 H         1 UNK         0.0000 
     68 C68        35.2887   29.0318   37.2646 C.ar      1 UNK         0.0000 
     69 H69        34.9575   28.0663   37.6371 H         1 UNK         0.0000 
     70 C70        34.6768   29.6701   36.2268 C.ar      1 UNK         0.0000 
     71 H71        33.7698   29.2315   35.8132 H         1 UNK         0.0000 
     72 N72        34.9539   30.8975   35.7627 N.ar      1 UNK         0.0000 
@<TRIPOS>BOND
     1    1    3 1    
     2    1    4 1    
     3    1    2 1    
     4    1    5 1    
     5    5    6 1    
     6    5   14 1    
     7    5   10 1    
     8    6    9 1    
     9    6    8 1    
    10    6    7 1    
    11   10   11 1    
    12   10   12 1    
    13   10   13 1    
    14   14   15 1    
    15   15   17 am   BACKBONE|DICT|INTERRES
    16   15   16 2    
    17   17   19 1    
    18   17   18 1    
    19   19   24 1    
    20   19   25 1    
    21   19   20 1    
    22   20   23 2    
    23   20   21 am   BACKBONE|DICT|INTERRES
    24   21   22 1    
    25   21   58 1    
    26   25   26 1    
    27   25   27 1    
    28   25   28 1    
    29   28   33 ar   
    30   28   29 ar   
    31   29   30 ar   
    32   29   32 1    
    33   30   37 ar   
    34   30   31 1    
    35   33   34 1    
    36   33   35 ar   
    37   35   36 1    
    38   35   37 ar   
    39   37   38 1    
    40   38   39 1    
    41   39   40 ar   
    42   39   44 ar   
    43   40   43 1    
    44   40   41 ar   
    45   41   42 1    
    46   41   48 ar   
    47   44   45 1    
    48   44   46 ar   
    49   46   48 ar   
    50   46   47 1    
    51   48   49 1    
    52   49   51 1    
    53   49   50 2    
    54   51   54 1    
    55   51   52 1    
    56   51   53 1    
    57   54   56 am   BACKBONE|DICT|INTERRES
    58   54   55 1    
    59   56   58 1    
    60   56   57 2    
    61   58   59 1    
    62   58   60 1    
    63   60   63 1    
    64   60   62 1    
    65   60   61 1    
    66   63   64 ar   
    67   63   72 ar   
    68   64   65 1    
    69   64   66 ar   
    70   66   67 1    
    71   66   68 ar   
    72   68   69 1    
    73   68   70 ar   
    74   70   71 1    
    75   70   72 ar   
@<TRIPOS>SUBSTRUCTURE
     1 UNK         1 GROUP             0       ****    0 ROOT    
@<TRIPOS>MOLECULE
Cpd5-4500
72   75    1
SMALL
USER_CHARGES


@<TRIPOS>ATOM
      1 C1         41.7266   40.2511   33.8854 C.3       1 UNK         0.0000 
      2 H2         40.8911   40.1934   33.1767 H         1 UNK         0.0000 
      3 H3         41.2975   40.6494   34.8128 H         1 UNK         0.0000 
      4 H4         42.2944   41.0632   33.4159 H         1 UNK         0.0000 
      5 C5         42.2774   38.8645   34.0198 C.3       1 UNK         0.0000 
      6 C6         43.4984   38.6050   34.9104 C.3       1 UNK         0.0000 
      7 H7         44.4097   39.1122   34.5719 H         1 UNK         0.0000 
      8 H8         43.4251   38.7720   35.9921 H         1 UNK         0.0000 
      9 H9         43.7128   37.5340   34.8157 H         1 UNK         0.0000 
     10 C10        42.5922   38.3802   32.5874 C.3       1 UNK         0.0000 
     11 H11        43.3863   39.0008   32.1553 H         1 UNK         0.0000 
     12 H12        43.0498   37.3844   32.6490 H         1 UNK         0.0000 
     13 H13        41.6873   38.3600   31.9675 H         1 UNK         0.0000 
     14 O14        41.2049   37.9881   34.3495 O.3       1 UNK         0.0000 
     15 C15        40.6556   37.9848   35.5364 C.2       1 UNK         0.0000 
     16 O16        40.9333   38.7078   36.4909 O.2       1 UNK         0.0000 
     17 N17        39.6892   37.0341   35.6078 N.am      1 UNK         0.0000 
     18 H18        39.4143   36.6495   34.7121 H         1 UNK         0.0000 
     19 C19        39.0033   36.4686   36.8110 C.3       1 UNK         0.0000 
     20 C20        38.6260   35.0118   36.6651 C.2       1 UNK         0.0000 
     21 N21        38.2026   34.6090   35.3905 N.am      1 UNK         0.0000 
     22 H22        38.0593   35.3019   34.6657 H         1 UNK         0.0000 
     23 O23        38.6802   34.2081   37.6154 O.2       1 UNK         0.0000 
     24 H24        39.7204   36.5501   37.6379 H         1 UNK         0.0000 
     25 C25        37.8132   37.3174   37.2597 C.3       1 UNK         0.0000 
     26 H26        38.0083   38.3978   37.2660 H         1 UNK         0.0000 
     27 H27        37.6138   37.1236   38.3203 H         1 UNK         0.0000 
     28 C28        36.5632   37.2632   36.4239 C.ar      1 UNK         0.0000 
     29 C29        36.4982   37.7484   35.0765 C.ar      1 UNK         0.0000 
     30 C30        35.3622   37.5812   34.2900 C.ar      1 UNK         0.0000 
     31 H31        35.2590   38.1623   33.3785 H         1 UNK         0.0000 
     32 H32        37.2289   38.4348   34.6596 H         1 UNK         0.0000 
     33 C33        35.4923   36.4114   36.8475 C.ar      1 UNK         0.0000 
     34 H34        35.5433   36.0404   37.8678 H         1 UNK         0.0000 
     35 C35        34.4050   36.1816   36.0325 C.ar      1 UNK         0.0000 
     36 H36        33.6199   35.4477   36.1893 H         1 UNK         0.0000 
     37 C37        34.2811   36.8316   34.8095 C.ar      1 UNK         0.0000 
     38 O38        33.3348   36.6082   33.9425 O.3       1 UNK         0.0000 
     39 C39        33.5834   35.4037   33.2488 C.ar      1 UNK         0.0000 
     40 C40        32.9795   34.1741   33.7260 C.ar      1 UNK         0.0000 
     41 C41        33.3962   32.9214   33.2319 C.ar      1 UNK         0.0000 
     42 H42        33.0964   31.9517   33.6168 H         1 UNK         0.0000 
     43 H43        32.3599   34.2498   34.6152 H         1 UNK         0.0000 
     44 C44        34.6100   35.2958   32.2410 C.ar      1 UNK         0.0000 
     45 H45        35.1524   36.2017   31.9909 H         1 UNK         0.0000 
     46 C46        35.0069   34.0552   31.6968 C.ar      1 UNK         0.0000 
     47 H47        35.7483   34.0505   30.9030 H         1 UNK         0.0000 
     48 C48        34.5071   32.9026   32.3320 C.ar      1 UNK         0.0000 
     49 C49        35.1182   31.6570   31.9087 C.2       1 UNK         0.0000 
     50 O50        34.5127   30.5904   31.8105 O.2       1 UNK         0.0000 
     51 C51        36.6319   31.5522   31.8055 C.3       1 UNK         0.0000 
     52 H52        36.7979   30.5237   31.4599 H         1 UNK         0.0000 
     53 H53        37.1278   32.1877   31.0627 H         1 UNK         0.0000 
     54 N54        37.2270   31.7918   33.1654 N.am      1 UNK         0.0000 
     55 H55        36.8819   31.2211   33.9278 H         1 UNK         0.0000 
     56 C56        37.6340   33.0731   33.5591 C.2       1 UNK         0.0000 
     57 O57        37.9960   33.9742   32.7615 O.2       1 UNK         0.0000 
     58 C58        37.6272   33.3242   35.0525 C.3       1 UNK         0.0000 
     59 H59        38.2663   32.6123   35.5893 H         1 UNK         0.0000 
     60 C60        36.1829   33.1501   35.6282 C.3       1 UNK         0.0000 
     61 H61        35.5256   33.3597   34.7756 H         1 UNK         0.0000 
     62 H62        35.9819   33.8278   36.4677 H         1 UNK         0.0000 
     63 C63        35.9738   31.7396   36.2013 C.ar      1 UNK         0.0000 
     64 C64        36.8010   31.3509   37.1415 C.ar      1 UNK         0.0000 
     65 H65        37.6342   31.9708   37.4583 H         1 UNK         0.0000 
     66 C66        36.6392   30.0706   37.6619 C.ar      1 UNK         0.0000 
     67 H67        37.2901   29.7745   38.4791 H         1 UNK         0.0000 
     68 C68        35.7492   29.1723   37.0868 C.ar      1 UNK         0.0000 
     69 H69        35.5976   28.1847   37.5112 H         1 UNK         0.0000 
     70 C70        34.9238   29.7063   36.1359 C.ar      1 UNK         0.0000 
     71 H71        34.1178   29.1041   35.7196 H         1 UNK         0.0000 
     72 N72        35.0087   30.9683   35.6228 N.ar      1 UNK         0.0000 
@<TRIPOS>BOND
     1    1    5 1    
     2    1    3 1    
     3    1    2 1    
     4    1    4 1    
     5    5   14 1    
     6    5    6 1    
     7    5   10 1    
     8    6    8 1    
     9    6    7 1    
    10    6    9 1    
    11   10   11 1    
    12   10   12 1    
    13   10   13 1    
    14   14   15 1    
    15   15   17 am   BACKBONE|DICT|INTERRES
    16   15   16 2    
    17   17   19 1    
    18   17   18 1    
    19   19   25 1    
    20   19   24 1    
    21   19   20 1    
    22   20   23 2    
    23   20   21 am   BACKBONE|DICT|INTERRES
    24   21   22 1    
    25   21   58 1    
    26   25   26 1    
    27   25   27 1    
    28   25   28 1    
    29   28   33 ar   
    30   28   29 ar   
    31   29   30 ar   
    32   29   32 1    
    33   30   37 ar   
    34   30   31 1    
    35   33   34 1    
    36   33   35 ar   
    37   35   36 1    
    38   35   37 ar   
    39   37   38 1    
    40   38   39 1    
    41   39   40 ar   
    42   39   44 ar   
    43   40   43 1    
    44   40   41 ar   
    45   41   42 1    
    46   41   48 ar   
    47   44   45 1    
    48   44   46 ar   
    49   46   48 ar   
    50   46   47 1    
    51   48   49 1    
    52   49   50 2    
    53   49   51 1    
    54   51   54 1    
    55   51   52 1    
    56   51   53 1    
    57   54   56 am   BACKBONE|DICT|INTERRES
    58   54   55 1    
    59   56   58 1    
    60   56   57 2    
    61   58   59 1    
    62   58   60 1    
    63   60   63 1    
    64   60   62 1    
    65   60   61 1    
    66   63   64 ar   
    67   63   72 ar   
    68   64   65 1    
    69   64   66 ar   
    70   66   67 1    
    71   66   68 ar   
    72   68   69 1    
    73   68   70 ar   
    74   70   71 1    
    75   70   72 ar   
@<TRIPOS>SUBSTRUCTURE
     1 UNK         1 GROUP             0       ****    0 ROOT    
@<TRIPOS>MOLECULE
Cpd5-5000
72   75    1
SMALL
USER_CHARGES


@<TRIPOS>ATOM
      1 C1         39.2741   40.0921   32.4653 C.3       1 UNK         0.0000 
      2 H2         39.4387   40.8953   31.7360 H         1 UNK         0.0000 
      3 H3         38.3275   39.5951   32.2226 H         1 UNK         0.0000 
      4 H4         39.0534   40.5099   33.4550 H         1 UNK         0.0000 
      5 C5         40.4074   39.0503   32.5036 C.3       1 UNK         0.0000 
      6 C6         41.7834   39.7023   32.8530 C.3       1 UNK         0.0000 
      7 H7         42.5714   39.0172   33.1892 H         1 UNK         0.0000 
      8 H8         42.0578   40.3642   32.0221 H         1 UNK         0.0000 
      9 H9         41.5987   40.4566   33.6272 H         1 UNK         0.0000 
     10 C10        40.4734   38.4425   31.1073 C.3       1 UNK         0.0000 
     11 H11        39.4824   38.1228   30.7622 H         1 UNK         0.0000 
     12 H12        40.7534   39.1983   30.3634 H         1 UNK         0.0000 
     13 H13        41.1541   37.5824   31.0836 H         1 UNK         0.0000 
     14 O14        40.0801   37.9820   33.3319 O.3       1 UNK         0.0000 
     15 C15        39.8942   38.1095   34.6710 C.2       1 UNK         0.0000 
     16 O16        40.1368   39.0796   35.3516 O.2       1 UNK         0.0000 
     17 N17        39.2789   36.9470   35.0593 N.am      1 UNK         0.0000 
     18 H18        39.2928   36.2495   34.3241 H         1 UNK         0.0000 
     19 C19        38.8879   36.5386   36.4086 C.3       1 UNK         0.0000 
     20 C20        38.4417   35.0643   36.4383 C.2       1 UNK         0.0000 
     21 N21        38.1172   34.4837   35.2144 N.am      1 UNK         0.0000 
     22 H22        37.9720   35.1578   34.4723 H         1 UNK         0.0000 
     23 O23        38.3440   34.4331   37.4395 O.2       1 UNK         0.0000 
     24 H24        39.8775   36.5705   36.8815 H         1 UNK         0.0000 
     25 C25        37.9167   37.5403   37.0943 C.3       1 UNK         0.0000 
     26 H26        38.3860   38.5312   37.0448 H         1 UNK         0.0000 
     27 H27        37.7617   37.3457   38.1628 H         1 UNK         0.0000 
     28 C28        36.5088   37.4752   36.4807 C.ar      1 UNK         0.0000 
     29 C29        36.3204   38.1640   35.2798 C.ar      1 UNK         0.0000 
     30 C30        35.0943   37.9792   34.5487 C.ar      1 UNK         0.0000 
     31 H31        34.8604   38.5793   33.6741 H         1 UNK         0.0000 
     32 H32        37.0310   38.9119   34.9401 H         1 UNK         0.0000 
     33 C33        35.6245   36.4847   36.9075 C.ar      1 UNK         0.0000 
     34 H34        35.9343   35.8174   37.7057 H         1 UNK         0.0000 
     35 C35        34.5043   36.1749   36.1197 C.ar      1 UNK         0.0000 
     36 H36        33.8330   35.3635   36.3867 H         1 UNK         0.0000 
     37 C37        34.1843   36.9253   34.9739 C.ar      1 UNK         0.0000 
     38 O38        33.2339   36.4319   34.0805 O.3       1 UNK         0.0000 
     39 C39        33.6589   35.3312   33.4107 C.ar      1 UNK         0.0000 
     40 C40        33.0877   34.0582   33.7058 C.ar      1 UNK         0.0000 
     41 C41        33.4874   32.9083   33.0852 C.ar      1 UNK         0.0000 
     42 H42        33.0353   31.9395   33.2767 H         1 UNK         0.0000 
     43 H43        32.2800   33.9855   34.4276 H         1 UNK         0.0000 
     44 C44        34.8272   35.4094   32.5334 C.ar      1 UNK         0.0000 
     45 H45        35.2997   36.3794   32.4131 H         1 UNK         0.0000 
     46 C46        35.3503   34.1814   32.0767 C.ar      1 UNK         0.0000 
     47 H47        36.1993   34.2653   31.4048 H         1 UNK         0.0000 
     48 C48        34.6777   32.9622   32.2665 C.ar      1 UNK         0.0000 
     49 C49        35.1570   31.6090   31.7251 C.2       1 UNK         0.0000 
     50 O50        34.3603   30.8630   31.1767 O.2       1 UNK         0.0000 
     51 C51        36.5933   31.1335   31.9783 C.3       1 UNK         0.0000 
     52 H52        36.7436   30.0478   32.0082 H         1 UNK         0.0000 
     53 H53        37.1998   31.4680   31.1279 H         1 UNK         0.0000 
     54 N54        37.1129   31.5346   33.3116 N.am      1 UNK         0.0000 
     55 H55        36.9358   30.9078   34.0872 H         1 UNK         0.0000 
     56 C56        37.7221   32.7350   33.6018 C.2       1 UNK         0.0000 
     57 O57        38.1908   33.4519   32.7445 O.2       1 UNK         0.0000 
     58 C58        37.6886   33.0832   35.1017 C.3       1 UNK         0.0000 
     59 H59        38.3581   32.4195   35.6624 H         1 UNK         0.0000 
     60 C60        36.2194   32.9553   35.6878 C.3       1 UNK         0.0000 
     61 H61        35.5753   33.5467   35.0251 H         1 UNK         0.0000 
     62 H62        36.1248   33.5620   36.5968 H         1 UNK         0.0000 
     63 C63        35.7234   31.4995   35.9789 C.ar      1 UNK         0.0000 
     64 C64        36.5466   30.5495   36.5489 C.ar      1 UNK         0.0000 
     65 H65        37.6084   30.6595   36.7505 H         1 UNK         0.0000 
     66 C66        35.9851   29.3701   37.0190 C.ar      1 UNK         0.0000 
     67 H67        36.5470   28.5872   37.5200 H         1 UNK         0.0000 
     68 C68        34.5792   29.2562   36.9149 C.ar      1 UNK         0.0000 
     69 H69        34.1004   28.3266   37.2070 H         1 UNK         0.0000 
     70 C70        33.8104   30.1668   36.1919 C.ar      1 UNK         0.0000 
     71 H71        32.7255   30.0955   36.1268 H         1 UNK         0.0000 
     72 N72        34.3954   31.3056   35.7275 N.ar      1 UNK         0.0000 
@<TRIPOS>BOND
     1    1    5 1    
     2    1    4 1    
     3    1    2 1    
     4    1    3 1    
     5    5    6 1    
     6    5   14 1    
     7    5   10 1    
     8    6    7 1    
     9    6    9 1    
    10    6    8 1    
    11   10   11 1    
    12   10   12 1    
    13   10   13 1    
    14   14   15 1    
    15   15   17 am   BACKBONE|DICT|INTERRES
    16   15   16 2    
    17   17   19 1    
    18   17   18 1    
    19   19   24 1    
    20   19   25 1    
    21   19   20 1    
    22   20   23 2    
    23   20   21 am   BACKBONE|DICT|INTERRES
    24   21   22 1    
    25   21   58 1    
    26   25   27 1    
    27   25   26 1    
    28   25   28 1    
    29   28   33 ar   
    30   28   29 ar   
    31   29   30 ar   
    32   29   32 1    
    33   30   37 ar   
    34   30   31 1    
    35   33   34 1    
    36   33   35 ar   
    37   35   36 1    
    38   35   37 ar   
    39   37   38 1    
    40   38   39 1    
    41   39   40 ar   
    42   39   44 ar   
    43   40   43 1    
    44   40   41 ar   
    45   41   42 1    
    46   41   48 ar   
    47   44   45 1    
    48   44   46 ar   
    49   46   48 ar   
    50   46   47 1    
    51   48   49 1    
    52   49   51 1    
    53   49   50 2    
    54   51   52 1    
    55   51   54 1    
    56   51   53 1    
    57   54   56 am   BACKBONE|DICT|INTERRES
    58   54   55 1    
    59   56   58 1    
    60   56   57 2    
    61   58   60 1    
    62   58   59 1    
    63   60   63 1    
    64   60   62 1    
    65   60   61 1    
    66   63   64 ar   
    67   63   72 ar   
    68   64   65 1    
    69   64   66 ar   
    70   66   67 1    
    71   66   68 ar   
    72   68   69 1    
    73   68   70 ar   
    74   70   71 1    
    75   70   72 ar   
@<TRIPOS>SUBSTRUCTURE
     1 UNK         1 GROUP             0       ****    0 ROOT    
