@<TRIPOS>MOLECULE
Cpd5-500
82   84    1
SMALL
USER_CHARGES


@<TRIPOS>ATOM
      1 C1         32.8886   25.0935   27.5493 C.3       1 UNK         0.0000 
      2 H2         32.6274   24.5472   28.4638 H         1 UNK         0.0000 
      3 H3         33.8225   24.7238   27.1085 H         1 UNK         0.0000 
      4 H4         32.8893   26.1842   27.6693 H         1 UNK         0.0000 
      5 C5         31.8034   24.7234   26.5467 C.3       1 UNK         0.0000 
      6 C6         31.8867   23.2506   26.4560 C.3       1 UNK         0.0000 
      7 H7         31.1848   22.8500   25.7145 H         1 UNK         0.0000 
      8 H8         32.8755   23.0219   26.0395 H         1 UNK         0.0000 
      9 H9         31.7138   22.7547   27.4193 H         1 UNK         0.0000 
     10 C10        32.1080   25.4192   25.2371 C.3       1 UNK         0.0000 
     11 H11        31.7194   26.4406   25.3320 H         1 UNK         0.0000 
     12 H12        33.1788   25.5234   25.0241 H         1 UNK         0.0000 
     13 H13        31.6114   24.8810   24.4210 H         1 UNK         0.0000 
     14 O14        30.5343   25.1280   26.9136 O.3       1 UNK         0.0000 
     15 C15        29.9416   24.7921   28.0323 C.2       1 UNK         0.0000 
     16 O16        30.1174   23.8492   28.7612 O.2       1 UNK         0.0000 
     17 N17        28.8687   25.6680   28.1745 N.am      1 UNK         0.0000 
     18 H18        28.8106   26.2625   27.3567 H         1 UNK         0.0000 
     19 C19        28.0145   25.6677   29.4293 C.3       1 UNK         0.0000 
     20 C20        26.5129   25.5251   29.0226 C.2       1 UNK         0.0000 
     21 N21        25.9654   26.3925   28.1095 N.am      1 UNK         0.0000 
     22 H22        26.5400   27.0717   27.6254 H         1 UNK         0.0000 
     23 O23        25.8307   24.6039   29.5068 O.2       1 UNK         0.0000 
     24 H24        28.2098   24.7130   29.9324 H         1 UNK         0.0000 
     25 C25        28.3621   26.7140   30.5065 C.3       1 UNK         0.0000 
     26 H26        29.4529   26.8124   30.5614 H         1 UNK         0.0000 
     27 H27        28.1197   26.4180   31.5350 H         1 UNK         0.0000 
     28 C28        27.8824   28.0777   30.1535 C.ar      1 UNK         0.0000 
     29 C29        28.5653   28.9284   29.2032 C.ar      1 UNK         0.0000 
     30 C30        28.0898   30.2660   28.9008 C.ar      1 UNK         0.0000 
     31 H31        28.6589   30.8278   28.1648 H         1 UNK         0.0000 
     32 H32        29.4994   28.5966   28.7588 H         1 UNK         0.0000 
     33 C33        26.6700   28.5251   30.6252 C.ar      1 UNK         0.0000 
     34 H34        26.1270   27.9015   31.3286 H         1 UNK         0.0000 
     35 C35        26.1301   29.7760   30.2758 C.ar      1 UNK         0.0000 
     36 H36        25.1778   30.0370   30.7275 H         1 UNK         0.0000 
     37 C37        26.8302   30.6574   29.4275 C.ar      1 UNK         0.0000 
     38 O38        26.1815   31.7093   28.8568 O.3       1 UNK         0.0000 
     39 C39        25.0567   31.4073   28.1740 C.ar      1 UNK         0.0000 
     40 C40        23.7278   31.5676   28.7610 C.ar      1 UNK         0.0000 
     41 C41        22.5979   31.0063   28.1140 C.ar      1 UNK         0.0000 
     42 H42        21.6539   30.9864   28.6505 H         1 UNK         0.0000 
     43 H43        23.6584   31.9300   29.7831 H         1 UNK         0.0000 
     44 C44        25.1973   30.7744   26.9879 C.ar      1 UNK         0.0000 
     45 H45        26.1985   30.6062   26.6015 H         1 UNK         0.0000 
     46 C46        24.1341   30.1745   26.3285 C.ar      1 UNK         0.0000 
     47 H47        24.3280   29.5868   25.4360 H         1 UNK         0.0000 
     48 C48        22.8251   30.2058   26.9243 C.ar      1 UNK         0.0000 
     49 C49        21.6489   29.3708   26.4121 C.2       1 UNK         0.0000 
     50 O50        20.4613   29.5505   26.7236 O.2       1 UNK         0.0000 
     51 C51        21.9464   28.1173   25.6187 C.3       1 UNK         0.0000 
     52 H52        21.0221   27.6992   25.2036 H         1 UNK         0.0000 
     53 H53        22.5627   28.3973   24.7557 H         1 UNK         0.0000 
     54 N54        22.5925   27.2133   26.5764 N.am      1 UNK         0.0000 
     55 H55        22.0084   26.7756   27.2793 H         1 UNK         0.0000 
     56 C56        23.9040   27.0057   26.6998 C.2       1 UNK         0.0000 
     57 O57        24.6749   27.2637   25.7848 O.2       1 UNK         0.0000 
     58 C58        24.4783   26.5058   28.0384 C.3       1 UNK         0.0000 
     59 H59        23.9945   25.5214   28.0447 H         1 UNK         0.0000 
     60 C60        24.0637   27.3254   29.2532 C.3       1 UNK         0.0000 
     61 H61        24.3225   28.3746   29.0641 H         1 UNK         0.0000 
     62 H62        24.5766   26.9928   30.1640 H         1 UNK         0.0000 
     63 C63        22.5844   27.2469   29.5575 C.ar      1 UNK         0.0000 
     64 C64        22.0298   26.0434   30.0227 C.ar      1 UNK         0.0000 
     65 H65        22.6684   25.1834   30.2007 H         1 UNK         0.0000 
     66 C66        20.6598   25.9930   30.4205 C.ar      1 UNK         0.0000 
     67 H67        20.1968   25.1513   30.9259 H         1 UNK         0.0000 
     68 C68        19.9536   27.2247   30.3131 C.ar      1 UNK         0.0000 
     69 H69        18.9002   27.2242   30.5778 H         1 UNK         0.0000 
     70 C70        20.5435   28.3813   29.6822 C.ar      1 UNK         0.0000 
     71 H71        20.0009   29.3197   29.5728 H         1 UNK         0.0000 
     72 N72        21.8320   28.3300   29.3165 N.ar      1 UNK         0.0000 
     73 C73        27.9051   29.8110   24.6144 C.3       1 UNK         0.0000 
     74 H74        27.8727   30.7643   25.1557 H         1 UNK         0.0000 
     75 H75        26.9334   29.3397   24.4212 H         1 UNK         0.0000 
     76 H76        28.5742   30.0558   23.7808 H         1 UNK         0.0000 
     77 S77        28.9815   28.6820   25.5078 S.3       1 UNK         0.0000 
     78 C78        29.1184   27.7626   23.9399 C.3       1 UNK         0.0000 
     79 H79        29.7302   28.3560   23.2488 H         1 UNK         0.0000 
     80 H80        28.0491   27.7631   23.6958 H         1 UNK         0.0000 
     81 H81        29.6252   26.8274   24.2079 H         1 UNK         0.0000 
     82 O82        28.1137   27.8013   26.3319 O.2       1 UNK         0.0000 
@<TRIPOS>BOND
     1    1    4 1    
     2    1    2 1    
     3    1    3 1    
     4    1    5 1    
     5    5   14 1    
     6    5    6 1    
     7    5   10 1    
     8    6    9 1    
     9    6    7 1    
    10    6    8 1    
    11   10   11 1    
    12   10   12 1    
    13   10   13 1    
    14   14   15 1    
    15   15   17 am   BACKBONE|DICT|INTERRES
    16   15   16 2    
    17   17   19 1    
    18   17   18 1    
    19   19   24 1    
    20   19   25 1    
    21   19   20 1    
    22   20   23 2    
    23   20   21 am   BACKBONE|DICT|INTERRES
    24   21   58 1    
    25   21   22 1    
    26   25   27 1    
    27   25   26 1    
    28   25   28 1    
    29   28   33 ar   
    30   28   29 ar   
    31   29   30 ar   
    32   29   32 1    
    33   30   37 ar   
    34   30   31 1    
    35   33   34 1    
    36   33   35 ar   
    37   35   36 1    
    38   35   37 ar   
    39   37   38 1    
    40   38   39 1    
    41   39   40 ar   
    42   39   44 ar   
    43   40   43 1    
    44   40   41 ar   
    45   41   42 1    
    46   41   48 ar   
    47   44   45 1    
    48   44   46 ar   
    49   46   48 ar   
    50   46   47 1    
    51   48   49 1    
    52   49   50 2    
    53   49   51 1    
    54   51   54 1    
    55   51   52 1    
    56   51   53 1    
    57   54   55 1    
    58   54   56 am   BACKBONE|DICT|INTERRES
    59   56   58 1    
    60   56   57 2    
    61   58   59 1    
    62   58   60 1    
    63   60   63 1    
    64   60   62 1    
    65   60   61 1    
    66   63   64 ar   
    67   63   72 ar   
    68   64   65 1    
    69   64   66 ar   
    70   66   68 ar   
    71   66   67 1    
    72   68   69 1    
    73   68   70 ar   
    74   70   71 1    
    75   70   72 ar   
    76   73   74 1    
    77   73   77 1    
    78   73   75 1    
    79   73   76 1    
    80   77   82 2    
    81   77   78 1    
    82   78   81 1    
    83   78   79 1    
    84   78   80 1    
@<TRIPOS>SUBSTRUCTURE
     1 UNK         1 GROUP             0       ****    0 ROOT    
@<TRIPOS>MOLECULE
Cpd5-1000
72   75    1
SMALL
USER_CHARGES


@<TRIPOS>ATOM
      1 C1         30.0383   23.4157   24.8377 C.3       1 UNK         0.0000 
      2 H2         30.8904   23.5166   25.5196 H         1 UNK         0.0000 
      3 H3         29.3385   22.7608   25.3708 H         1 UNK         0.0000 
      4 H4         30.3343   22.9177   23.9063 H         1 UNK         0.0000 
      5 C5         29.3781   24.8090   24.5047 C.3       1 UNK         0.0000 
      6 C6         28.0331   24.7380   23.6963 C.3       1 UNK         0.0000 
      7 H7         28.1771   24.1183   22.8026 H         1 UNK         0.0000 
      8 H8         27.1423   24.3205   24.1804 H         1 UNK         0.0000 
      9 H9         27.6135   25.7248   23.4655 H         1 UNK         0.0000 
     10 C10        30.4080   25.6517   23.6670 C.3       1 UNK         0.0000 
     11 H11        30.1025   26.6621   23.3685 H         1 UNK         0.0000 
     12 H12        31.4106   25.7251   24.1067 H         1 UNK         0.0000 
     13 H13        30.5260   25.1534   22.6971 H         1 UNK         0.0000 
     14 O14        29.1738   25.5170   25.7619 O.3       1 UNK         0.0000 
     15 C15        28.3653   25.0859   26.6788 C.2       1 UNK         0.0000 
     16 O16        27.6834   24.1184   26.7285 O.2       1 UNK         0.0000 
     17 N17        28.5238   25.8841   27.7236 N.am      1 UNK         0.0000 
     18 H18        29.2074   26.6220   27.6052 H         1 UNK         0.0000 
     19 C19        27.9243   25.6841   29.0749 C.3       1 UNK         0.0000 
     20 C20        26.3848   25.5981   29.1540 C.2       1 UNK         0.0000 
     21 N21        25.7127   26.1386   28.1368 N.am      1 UNK         0.0000 
     22 H22        26.2429   26.4386   27.3287 H         1 UNK         0.0000 
     23 O23        25.8519   25.0901   30.1276 O.2       1 UNK         0.0000 
     24 H24        28.1860   24.6642   29.3815 H         1 UNK         0.0000 
     25 C25        28.5029   26.7087   30.1539 C.3       1 UNK         0.0000 
     26 H26        29.5991   26.6570   30.1389 H         1 UNK         0.0000 
     27 H27        28.2118   26.3004   31.1295 H         1 UNK         0.0000 
     28 C28        27.9755   28.1316   29.9220 C.ar      1 UNK         0.0000 
     29 C29        28.3177   28.9185   28.8504 C.ar      1 UNK         0.0000 
     30 C30        27.7456   30.1614   28.6355 C.ar      1 UNK         0.0000 
     31 H31        27.9841   30.7113   27.7300 H         1 UNK         0.0000 
     32 H32        29.0515   28.4800   28.1801 H         1 UNK         0.0000 
     33 C33        27.0238   28.6016   30.7846 C.ar      1 UNK         0.0000 
     34 H34        26.7699   27.8747   31.5501 H         1 UNK         0.0000 
     35 C35        26.3725   29.8102   30.5876 C.ar      1 UNK         0.0000 
     36 H36        25.5351   30.1022   31.2141 H         1 UNK         0.0000 
     37 C37        26.7972   30.6031   29.5335 C.ar      1 UNK         0.0000 
     38 O38        25.9783   31.7228   29.2495 O.3       1 UNK         0.0000 
     39 C39        24.9697   31.3745   28.4371 C.ar      1 UNK         0.0000 
     40 C40        23.6866   31.3448   28.9344 C.ar      1 UNK         0.0000 
     41 C41        22.6555   30.7643   28.1029 C.ar      1 UNK         0.0000 
     42 H42        21.6723   30.6261   28.5434 H         1 UNK         0.0000 
     43 H43        23.4672   31.6856   29.9420 H         1 UNK         0.0000 
     44 C44        25.2027   31.0796   27.0680 C.ar      1 UNK         0.0000 
     45 H45        26.1874   31.2353   26.6374 H         1 UNK         0.0000 
     46 C46        24.2359   30.4884   26.2672 C.ar      1 UNK         0.0000 
     47 H47        24.5259   30.0494   25.3163 H         1 UNK         0.0000 
     48 C48        22.8773   30.2904   26.8161 C.ar      1 UNK         0.0000 
     49 C49        21.7529   29.5196   26.1846 C.2       1 UNK         0.0000 
     50 O50        20.5742   29.7040   26.4424 O.2       1 UNK         0.0000 
     51 C51        22.1902   28.2034   25.5418 C.3       1 UNK         0.0000 
     52 H52        21.3629   27.8409   24.9195 H         1 UNK         0.0000 
     53 H53        23.0219   28.3875   24.8510 H         1 UNK         0.0000 
     54 N54        22.6043   27.1445   26.5455 N.am      1 UNK         0.0000 
     55 H55        21.9776   26.8971   27.3009 H         1 UNK         0.0000 
     56 C56        23.9210   26.7521   26.6946 C.2       1 UNK         0.0000 
     57 O57        24.7860   26.9320   25.8421 O.2       1 UNK         0.0000 
     58 C58        24.2368   26.2396   28.0738 C.3       1 UNK         0.0000 
     59 H59        23.8707   25.2052   28.0850 H         1 UNK         0.0000 
     60 C60        23.5437   27.0409   29.2398 C.3       1 UNK         0.0000 
     61 H61        23.6076   28.0997   28.9599 H         1 UNK         0.0000 
     62 H62        24.1626   27.0044   30.1449 H         1 UNK         0.0000 
     63 C63        22.1383   26.6728   29.5576 C.ar      1 UNK         0.0000 
     64 C64        21.7431   25.4806   30.1871 C.ar      1 UNK         0.0000 
     65 H65        22.4278   24.6758   30.4370 H         1 UNK         0.0000 
     66 C66        20.4101   25.3163   30.5166 C.ar      1 UNK         0.0000 
     67 H67        20.0628   24.4272   31.0342 H         1 UNK         0.0000 
     68 C68        19.4368   26.2563   30.1598 C.ar      1 UNK         0.0000 
     69 H69        18.4301   26.2010   30.5640 H         1 UNK         0.0000 
     70 C70        19.9489   27.4019   29.5148 C.ar      1 UNK         0.0000 
     71 H71        19.2766   28.1376   29.0769 H         1 UNK         0.0000 
     72 N72        21.2713   27.6324   29.2357 N.ar      1 UNK         0.0000 
@<TRIPOS>BOND
     1    1    3 1    
     2    1    2 1    
     3    1    4 1    
     4    1    5 1    
     5    5   14 1    
     6    5    6 1    
     7    5   10 1    
     8    6    8 1    
     9    6    7 1    
    10    6    9 1    
    11   10   12 1    
    12   10   11 1    
    13   10   13 1    
    14   14   15 1    
    15   15   16 2    
    16   15   17 am   BACKBONE|DICT|INTERRES
    17   17   19 1    
    18   17   18 1    
    19   19   24 1    
    20   19   25 1    
    21   19   20 1    
    22   20   23 2    
    23   20   21 am   BACKBONE|DICT|INTERRES
    24   21   22 1    
    25   21   58 1    
    26   25   26 1    
    27   25   27 1    
    28   25   28 1    
    29   28   33 ar   
    30   28   29 ar   
    31   29   30 ar   
    32   29   32 1    
    33   30   37 ar   
    34   30   31 1    
    35   33   34 1    
    36   33   35 ar   
    37   35   36 1    
    38   35   37 ar   
    39   37   38 1    
    40   38   39 1    
    41   39   40 ar   
    42   39   44 ar   
    43   40   43 1    
    44   40   41 ar   
    45   41   42 1    
    46   41   48 ar   
    47   44   45 1    
    48   44   46 ar   
    49   46   48 ar   
    50   46   47 1    
    51   48   49 1    
    52   49   50 2    
    53   49   51 1    
    54   51   54 1    
    55   51   52 1    
    56   51   53 1    
    57   54   56 am   BACKBONE|DICT|INTERRES
    58   54   55 1    
    59   56   58 1    
    60   56   57 2    
    61   58   59 1    
    62   58   60 1    
    63   60   63 1    
    64   60   62 1    
    65   60   61 1    
    66   63   64 ar   
    67   63   72 ar   
    68   64   66 ar   
    69   64   65 1    
    70   66   67 1    
    71   66   68 ar   
    72   68   69 1    
    73   68   70 ar   
    74   70   71 1    
    75   70   72 ar   
@<TRIPOS>SUBSTRUCTURE
     1 UNK         1 GROUP             0       ****    0 ROOT    
@<TRIPOS>MOLECULE
Cpd5-1500-MEC
82   84    1
SMALL
USER_CHARGES


@<TRIPOS>ATOM
      1 C1         32.4670   26.3070   26.1710 C.3       1 UNK         0.0000 
      2 H2         32.7560   26.0840   27.2060 H         1 UNK         0.0000 
      3 H3         33.4110   26.3970   25.6190 H         1 UNK         0.0000 
      4 H4         32.1540   27.3570   26.1150 H         1 UNK         0.0000 
      5 C5         31.4920   25.4760   25.4130 C.3       1 UNK         0.0000 
      6 C6         31.8520   23.9620   25.2780 C.3       1 UNK         0.0000 
      7 H7         32.8390   23.8890   24.8050 H         1 UNK         0.0000 
      8 H8         31.9260   23.4990   26.2690 H         1 UNK         0.0000 
      9 H9         31.0600   23.4570   24.7120 H         1 UNK         0.0000 
     10 C10        31.3770   26.0450   24.0080 C.3       1 UNK         0.0000 
     11 H11        30.6470   25.4670   23.4270 H         1 UNK         0.0000 
     12 H12        31.1530   27.1170   24.0590 H         1 UNK         0.0000 
     13 H13        32.2700   25.8480   23.4030 H         1 UNK         0.0000 
     14 O14        30.2060   25.7430   26.0200 O.3       1 UNK         0.0000 
     15 C15        29.9960   25.4650   27.3060 C.2       1 UNK         0.0000 
     16 O16        30.7490   24.9360   28.1060 O.2       1 UNK         0.0000 
     17 N17        28.7510   26.0070   27.7320 N.am      1 UNK         0.0000 
     18 H18        28.2070   26.4360   26.9930 H         1 UNK         0.0000 
     19 C19        28.1500   25.7540   29.0820 C.3       1 UNK         0.0000 
     20 C20        26.5930   25.6970   29.1060 C.2       1 UNK         0.0000 
     21 N21        25.7690   26.4520   28.1420 N.am      1 UNK         0.0000 
     22 H22        26.1480   27.1000   27.4630 H         1 UNK         0.0000 
     23 O23        26.0630   24.9930   29.9980 O.2       1 UNK         0.0000 
     24 H24        28.4650   24.7330   29.3310 H         1 UNK         0.0000 
     25 C25        28.7300   26.6660   30.2300 C.3       1 UNK         0.0000 
     26 H26        29.8160   26.7830   30.1330 H         1 UNK         0.0000 
     27 H27        28.6520   26.2360   31.2370 H         1 UNK         0.0000 
     28 C28        28.2070   28.1010   30.1870 C.ar      1 UNK         0.0000 
     29 C29        28.7960   29.0380   29.3210 C.ar      1 UNK         0.0000 
     30 C30        28.1180   30.2230   28.9780 C.ar      1 UNK         0.0000 
     31 H31        28.3870   30.9450   28.2120 H         1 UNK         0.0000 
     32 H32        29.7310   28.7660   28.8400 H         1 UNK         0.0000 
     33 C33        27.0190   28.4160   30.7870 C.ar      1 UNK         0.0000 
     34 H34        26.4740   27.6760   31.3650 H         1 UNK         0.0000 
     35 C35        26.3470   29.6010   30.4980 C.ar      1 UNK         0.0000 
     36 H36        25.4250   29.7950   31.0370 H         1 UNK         0.0000 
     37 C37        26.8450   30.4910   29.5370 C.ar      1 UNK         0.0000 
     38 O38        25.9820   31.4970   29.0940 O.3       1 UNK         0.0000 
     39 C39        24.9270   31.2000   28.2880 C.ar      1 UNK         0.0000 
     40 C40        23.6070   31.3710   28.7670 C.ar      1 UNK         0.0000 
     41 C41        22.4670   30.9600   28.0020 C.ar      1 UNK         0.0000 
     42 H42        21.4670   31.2140   28.3400 H         1 UNK         0.0000 
     43 H43        23.4430   31.9370   29.6790 H         1 UNK         0.0000 
     44 C44        25.0710   30.5220   27.0850 C.ar      1 UNK         0.0000 
     45 H45        26.0650   30.2500   26.7430 H         1 UNK         0.0000 
     46 C46        23.9660   30.1200   26.2780 C.ar      1 UNK         0.0000 
     47 H47        24.2640   29.4280   25.4960 H         1 UNK         0.0000 
     48 C48        22.6640   30.2760   26.7990 C.ar      1 UNK         0.0000 
     49 C49        21.5500   29.6050   26.0400 C.2       1 UNK         0.0000 
     50 O50        20.4480   30.1240   25.9730 O.2       1 UNK         0.0000 
     51 C51        21.8410   28.1640   25.5730 C.3       1 UNK         0.0000 
     52 H52        20.8850   27.7140   25.2800 H         1 UNK         0.0000 
     53 H53        22.5030   28.2080   24.7000 H         1 UNK         0.0000 
     54 N54        22.4870   27.3010   26.7030 N.am      1 UNK         0.0000 
     55 H55        22.0130   27.2460   27.5970 H         1 UNK         0.0000 
     56 C56        23.8300   26.9480   26.7760 C.2       1 UNK         0.0000 
     57 O57        24.4950   27.0330   25.7810 O.2       1 UNK         0.0000 
     58 C58        24.3080   26.4530   28.1360 C.3       1 UNK         0.0000 
     59 H59        24.0160   25.4170   28.3500 H         1 UNK         0.0000 
     60 C60        23.7990   27.3610   29.2860 C.3       1 UNK         0.0000 
     61 H61        23.7970   28.4220   29.0110 H         1 UNK         0.0000 
     62 H62        24.4790   27.2210   30.1340 H         1 UNK         0.0000 
     63 C63        22.4410   26.9950   29.8870 C.ar      1 UNK         0.0000 
     64 C64        22.0580   25.6580   30.1320 C.ar      1 UNK         0.0000 
     65 H65        22.7320   24.8650   29.8200 H         1 UNK         0.0000 
     66 C66        20.8160   25.4720   30.7300 C.ar      1 UNK         0.0000 
     67 H67        20.3590   24.4900   30.8030 H         1 UNK         0.0000 
     68 C68        20.1060   26.5480   31.1810 C.ar      1 UNK         0.0000 
     69 H69        19.1510   26.4930   31.6960 H         1 UNK         0.0000 
     70 C70        20.5190   27.8760   30.8010 C.ar      1 UNK         0.0000 
     71 H71        19.8820   28.6860   31.1540 H         1 UNK         0.0000 
     72 N72        21.7050   28.1400   30.2030 N.ar      1 UNK         0.0000 
     73 C73        26.7970   29.2650   23.8860 C.3       1 UNK         0.0000 
     74 H74        25.7890   28.9170   24.1410 H         1 UNK         0.0000 
     75 H75        26.8060   29.1190   22.7990 H         1 UNK         0.0000 
     76 H76        26.9680   30.3050   24.1920 H         1 UNK         0.0000 
     77 S77        27.9320   28.1210   24.6810 S.3       1 UNK         0.0000 
     78 C78        27.3630   26.6270   23.7290 C.3       1 UNK         0.0000 
     79 H79        27.8770   25.7100   24.0420 H         1 UNK         0.0000 
     80 H80        27.5770   26.6540   22.6540 H         1 UNK         0.0000 
     81 H81        26.2680   26.6200   23.8000 H         1 UNK         0.0000 
     82 O82        27.4760   28.0650   26.0930 O.2       1 UNK         0.0000 
@<TRIPOS>BOND
     1    1    2 1    
     2    1    3 1    
     3    1    4 1    
     4    1    5 1    
     5    5   14 1    
     6    5    6 1    
     7    5   10 1    
     8    6    8 1    
     9    6    7 1    
    10    6    9 1    
    11   10   12 1    
    12   10   11 1    
    13   10   13 1    
    14   14   15 1    
    15   15   17 am   BACKBONE|DICT|INTERRES
    16   15   16 2    
    17   17   19 1    
    18   17   18 1    
    19   19   20 1    
    20   19   24 1    
    21   19   25 1    
    22   20   23 2    
    23   20   21 am   BACKBONE|DICT|INTERRES
    24   21   22 1    
    25   21   58 1    
    26   25   27 1    
    27   25   26 1    
    28   25   28 1    
    29   28   33 ar   
    30   28   29 ar   
    31   29   30 ar   
    32   29   32 1    
    33   30   37 ar   
    34   30   31 1    
    35   33   34 1    
    36   33   35 ar   
    37   35   36 1    
    38   35   37 ar   
    39   37   38 1    
    40   38   39 1    
    41   39   40 ar   
    42   39   44 ar   
    43   40   43 1    
    44   40   41 ar   
    45   41   42 1    
    46   41   48 ar   
    47   44   45 1    
    48   44   46 ar   
    49   46   48 ar   
    50   46   47 1    
    51   48   49 1    
    52   49   50 2    
    53   49   51 1    
    54   51   54 1    
    55   51   52 1    
    56   51   53 1    
    57   54   56 am   BACKBONE|DICT|INTERRES
    58   54   55 1    
    59   56   58 1    
    60   56   57 2    
    61   58   59 1    
    62   58   60 1    
    63   60   63 1    
    64   60   62 1    
    65   60   61 1    
    66   63   64 ar   
    67   63   72 ar   
    68   64   66 ar   
    69   64   65 1    
    70   66   67 1    
    71   66   68 ar   
    72   68   69 1    
    73   68   70 ar   
    74   70   71 1    
    75   70   72 ar   
    76   73   74 1    
    77   73   76 1    
    78   73   77 1    
    79   73   75 1    
    80   77   82 2    
    81   77   78 1    
    82   78   81 1    
    83   78   79 1    
    84   78   80 1    
@<TRIPOS>SUBSTRUCTURE
     1 UNK         1 GROUP             0       ****    0 ROOT    
@<TRIPOS>MOLECULE
Cpd5-2000
82   84    1
SMALL
USER_CHARGES


@<TRIPOS>ATOM
      1 C1         31.6421   27.5073   24.6043 C.3       1 UNK         0.0000 
      2 H2         31.5496   28.5612   24.8929 H         1 UNK         0.0000 
      3 H3         32.1269   26.8992   25.3773 H         1 UNK         0.0000 
      4 H4         32.2881   27.4684   23.7190 H         1 UNK         0.0000 
      5 C5         30.3082   27.0419   24.1540 C.3       1 UNK         0.0000 
      6 C6         30.3616   25.5663   23.6518 C.3       1 UNK         0.0000 
      7 H7         31.0331   24.9776   24.2893 H         1 UNK         0.0000 
      8 H8         29.3933   25.0521   23.6829 H         1 UNK         0.0000 
      9 H9         30.6791   25.5201   22.6025 H         1 UNK         0.0000 
     10 C10        29.8859   27.8422   22.9144 C.3       1 UNK         0.0000 
     11 H11        30.6307   27.7396   22.1157 H         1 UNK         0.0000 
     12 H12        28.9416   27.4615   22.5072 H         1 UNK         0.0000 
     13 H13        29.7407   28.9021   23.1587 H         1 UNK         0.0000 
     14 O14        29.2820   27.1460   25.1385 O.3       1 UNK         0.0000 
     15 C15        29.3184   26.4324   26.2866 C.2       1 UNK         0.0000 
     16 O16        30.3238   25.9161   26.7562 O.2       1 UNK         0.0000 
     17 N17        28.1547   26.6160   26.9950 N.am      1 UNK         0.0000 
     18 H18        27.4348   27.2510   26.6746 H         1 UNK         0.0000 
     19 C19        27.9875   25.9939   28.3296 C.3       1 UNK         0.0000 
     20 C20        26.5973   25.4292   28.7073 C.2       1 UNK         0.0000 
     21 N21        25.5675   26.1646   28.1776 N.am      1 UNK         0.0000 
     22 H22        25.7668   26.9462   27.5646 H         1 UNK         0.0000 
     23 O23        26.5351   24.4466   29.3892 O.2       1 UNK         0.0000 
     24 H24        28.6180   25.0966   28.3246 H         1 UNK         0.0000 
     25 C25        28.5557   26.9335   29.5384 C.3       1 UNK         0.0000 
     26 H26        29.6196   27.0428   29.2934 H         1 UNK         0.0000 
     27 H27        28.5990   26.3982   30.4944 H         1 UNK         0.0000 
     28 C28        27.8592   28.2281   29.7034 C.ar      1 UNK         0.0000 
     29 C29        28.3397   29.2608   28.8948 C.ar      1 UNK         0.0000 
     30 C30        27.6997   30.4966   28.8655 C.ar      1 UNK         0.0000 
     31 H31        28.0176   31.2689   28.1698 H         1 UNK         0.0000 
     32 H32        29.0963   29.0149   28.1559 H         1 UNK         0.0000 
     33 C33        26.8464   28.5206   30.6404 C.ar      1 UNK         0.0000 
     34 H34        26.6224   27.7344   31.3541 H         1 UNK         0.0000 
     35 C35        26.2607   29.8025   30.6595 C.ar      1 UNK         0.0000 
     36 H36        25.5039   30.0695   31.3913 H         1 UNK         0.0000 
     37 C37        26.6621   30.7688   29.7507 C.ar      1 UNK         0.0000 
     38 O38        25.7803   31.8061   29.5239 O.3       1 UNK         0.0000 
     39 C39        24.7795   31.5580   28.6207 C.ar      1 UNK         0.0000 
     40 C40        23.7717   30.7035   29.0269 C.ar      1 UNK         0.0000 
     41 C41        22.9228   30.1520   28.0665 C.ar      1 UNK         0.0000 
     42 H42        22.2120   29.3936   28.3790 H         1 UNK         0.0000 
     43 H43        23.6718   30.4773   30.0842 H         1 UNK         0.0000 
     44 C44        24.9886   31.8640   27.2895 C.ar      1 UNK         0.0000 
     45 H45        25.7504   32.5924   27.0273 H         1 UNK         0.0000 
     46 C46        24.2292   31.1893   26.3040 C.ar      1 UNK         0.0000 
     47 H47        24.4416   31.4204   25.2645 H         1 UNK         0.0000 
     48 C48        23.2718   30.2488   26.6673 C.ar      1 UNK         0.0000 
     49 C49        22.5643   29.4881   25.6233 C.2       1 UNK         0.0000 
     50 O50        22.3153   30.0358   24.5747 O.2       1 UNK         0.0000 
     51 C51        22.2417   28.0619   25.8830 C.3       1 UNK         0.0000 
     52 H52        21.3600   27.9802   26.5306 H         1 UNK         0.0000 
     53 H53        22.0564   27.5707   24.9205 H         1 UNK         0.0000 
     54 N54        23.3097   27.3069   26.6346 N.am      1 UNK         0.0000 
     55 H55        24.2797   27.4847   26.4047 H         1 UNK         0.0000 
     56 C56        23.0595   26.5113   27.7619 C.2       1 UNK         0.0000 
     57 O57        21.9250   26.0069   27.8474 O.2       1 UNK         0.0000 
     58 C58        24.2095   26.0282   28.6810 C.3       1 UNK         0.0000 
     59 H59        24.0617   24.9418   28.7083 H         1 UNK         0.0000 
     60 C60        24.0434   26.5486   30.1267 C.3       1 UNK         0.0000 
     61 H61        24.2366   27.6289   30.1307 H         1 UNK         0.0000 
     62 H62        24.8846   26.2578   30.7681 H         1 UNK         0.0000 
     63 C63        22.7766   26.1587   30.9292 C.ar      1 UNK         0.0000 
     64 C64        22.0986   24.9636   30.6743 C.ar      1 UNK         0.0000 
     65 H65        22.4628   24.3024   29.8940 H         1 UNK         0.0000 
     66 C66        20.9988   24.6051   31.4520 C.ar      1 UNK         0.0000 
     67 H67        20.3415   23.7904   31.1619 H         1 UNK         0.0000 
     68 C68        20.5849   25.4409   32.4699 C.ar      1 UNK         0.0000 
     69 H69        19.6966   25.2447   33.0642 H         1 UNK         0.0000 
     70 C70        21.3378   26.6598   32.6489 C.ar      1 UNK         0.0000 
     71 H71        21.1092   27.4975   33.3074 H         1 UNK         0.0000 
     72 N72        22.3317   27.0476   31.7895 N.ar      1 UNK         0.0000 
     73 C73        53.7456   25.0199   57.0199 C.3       1 UNK         0.0000 
     74 H74        52.9195   25.5556   57.5024 H         1 UNK         0.0000 
     75 H75        53.6591   23.9286   57.0890 H         1 UNK         0.0000 
     76 H76        53.7513   25.2001   55.9376 H         1 UNK         0.0000 
     77 S77        55.2702   25.5452   57.7572 S.3       1 UNK         0.0000 
     78 C78        55.2901   27.1987   57.0163 C.3       1 UNK         0.0000 
     79 H79        55.4455   27.1974   55.9304 H         1 UNK         0.0000 
     80 H80        56.1954   27.5535   57.5246 H         1 UNK         0.0000 
     81 H81        54.4560   27.7707   57.4407 H         1 UNK         0.0000 
     82 O82        56.3035   24.8799   56.9756 O.2       1 UNK         0.0000 
@<TRIPOS>BOND
     1    1    2 1    
     2    1    3 1    
     3    1    4 1    
     4    1    5 1    
     5    5   14 1    
     6    5    6 1    
     7    5   10 1    
     8    6    7 1    
     9    6    8 1    
    10    6    9 1    
    11   10   13 1    
    12   10   11 1    
    13   10   12 1    
    14   14   15 1    
    15   15   17 am   BACKBONE|DICT|INTERRES
    16   15   16 2    
    17   17   19 1    
    18   17   18 1    
    19   19   20 1    
    20   19   24 1    
    21   19   25 1    
    22   20   23 2    
    23   20   21 am   BACKBONE|DICT|INTERRES
    24   21   58 1    
    25   21   22 1    
    26   25   27 1    
    27   25   26 1    
    28   25   28 1    
    29   28   33 ar   
    30   28   29 ar   
    31   29   30 ar   
    32   29   32 1    
    33   30   37 ar   
    34   30   31 1    
    35   33   34 1    
    36   33   35 ar   
    37   35   36 1    
    38   35   37 ar   
    39   37   38 1    
    40   38   39 1    
    41   39   40 ar   
    42   39   44 ar   
    43   40   43 1    
    44   40   41 ar   
    45   41   42 1    
    46   41   48 ar   
    47   44   45 1    
    48   44   46 ar   
    49   46   48 ar   
    50   46   47 1    
    51   48   49 1    
    52   49   51 1    
    53   49   50 2    
    54   51   52 1    
    55   51   54 1    
    56   51   53 1    
    57   54   56 am   BACKBONE|DICT|INTERRES
    58   54   55 1    
    59   56   58 1    
    60   56   57 2    
    61   58   59 1    
    62   58   60 1    
    63   60   63 1    
    64   60   62 1    
    65   60   61 1    
    66   63   72 ar   
    67   63   64 ar   
    68   64   66 ar   
    69   64   65 1    
    70   66   68 ar   
    71   66   67 1    
    72   68   70 ar   
    73   68   69 1    
    74   70   71 1    
    75   70   72 ar   
    76   73   75 1    
    77   73   74 1    
    78   73   77 1    
    79   73   76 1    
    80   77   78 1    
    81   77   82 2    
    82   78   81 1    
    83   78   80 1    
    84   78   79 1    
@<TRIPOS>SUBSTRUCTURE
     1 UNK         1 GROUP             0       ****    0 ROOT    
@<TRIPOS>MOLECULE
Cpd5-2500
82   84    1
SMALL
USER_CHARGES


@<TRIPOS>ATOM
      1 C1         29.4248   23.0988   24.2581 C.3       1 UNK         0.0000 
      2 H2         29.4833   22.6111   23.2773 H         1 UNK         0.0000 
      3 H3         30.4336   23.2513   24.6600 H         1 UNK         0.0000 
      4 H4         28.9243   22.4834   25.0157 H         1 UNK         0.0000 
      5 C5         28.5185   24.3441   24.2284 C.3       1 UNK         0.0000 
      6 C6         27.0030   24.1137   24.0758 C.3       1 UNK         0.0000 
      7 H7         26.6689   23.2338   24.6402 H         1 UNK         0.0000 
      8 H8         26.3563   24.9162   24.4505 H         1 UNK         0.0000 
      9 H9         26.7512   24.1838   23.0111 H         1 UNK         0.0000 
     10 C10        29.0232   25.2472   23.0717 C.3       1 UNK         0.0000 
     11 H11        30.1199   25.2598   23.0849 H         1 UNK         0.0000 
     12 H12        28.7512   24.7659   22.1238 H         1 UNK         0.0000 
     13 H13        28.7078   26.2891   23.2005 H         1 UNK         0.0000 
     14 O14        28.7055   25.2057   25.4105 O.3       1 UNK         0.0000 
     15 C15        28.4346   24.7250   26.6239 C.2       1 UNK         0.0000 
     16 O16        28.0076   23.5845   26.9026 O.2       1 UNK         0.0000 
     17 N17        28.5847   25.7222   27.5513 N.am      1 UNK         0.0000 
     18 H18        28.9187   26.6122   27.2024 H         1 UNK         0.0000 
     19 C19        28.1646   25.5739   29.0082 C.3       1 UNK         0.0000 
     20 C20        26.6113   25.6001   29.0482 C.2       1 UNK         0.0000 
     21 N21        25.8486   26.3865   28.1892 N.am      1 UNK         0.0000 
     22 H22        26.4041   26.9838   27.5882 H         1 UNK         0.0000 
     23 O23        26.0790   24.9845   29.9321 O.2       1 UNK         0.0000 
     24 H24        28.4141   24.5777   29.3912 H         1 UNK         0.0000 
     25 C25        28.6680   26.6462   30.0501 C.3       1 UNK         0.0000 
     26 H26        29.7597   26.6584   29.9376 H         1 UNK         0.0000 
     27 H27        28.4371   26.4985   31.1125 H         1 UNK         0.0000 
     28 C28        28.0222   28.0557   29.8469 C.ar      1 UNK         0.0000 
     29 C29        28.3954   28.8795   28.8257 C.ar      1 UNK         0.0000 
     30 C30        27.7364   30.1342   28.6847 C.ar      1 UNK         0.0000 
     31 H31        27.9737   30.7392   27.8153 H         1 UNK         0.0000 
     32 H32        29.1632   28.5463   28.1332 H         1 UNK         0.0000 
     33 C33        27.0273   28.4448   30.8250 C.ar      1 UNK         0.0000 
     34 H34        26.6957   27.8104   31.6415 H         1 UNK         0.0000 
     35 C35        26.3988   29.6724   30.6421 C.ar      1 UNK         0.0000 
     36 H36        25.6644   29.9878   31.3771 H         1 UNK         0.0000 
     37 C37        26.7224   30.5406   29.5806 C.ar      1 UNK         0.0000 
     38 O38        25.8427   31.5299   29.2042 O.3       1 UNK         0.0000 
     39 C39        24.8950   31.1413   28.3823 C.ar      1 UNK         0.0000 
     40 C40        23.6462   30.8736   28.9113 C.ar      1 UNK         0.0000 
     41 C41        22.6282   30.3951   28.1467 C.ar      1 UNK         0.0000 
     42 H42        21.7226   30.0977   28.6684 H         1 UNK         0.0000 
     43 H43        23.6538   30.7997   29.9947 H         1 UNK         0.0000 
     44 C44        25.0357   31.1929   27.0070 C.ar      1 UNK         0.0000 
     45 H45        25.9701   31.4301   26.5057 H         1 UNK         0.0000 
     46 C46        24.0078   30.7390   26.2396 C.ar      1 UNK         0.0000 
     47 H47        24.2464   30.6915   25.1811 H         1 UNK         0.0000 
     48 C48        22.8036   30.2400   26.7630 C.ar      1 UNK         0.0000 
     49 C49        21.9066   29.4145   25.8920 C.2       1 UNK         0.0000 
     50 O50        21.7582   29.7254   24.7087 O.2       1 UNK         0.0000 
     51 C51        21.3018   28.1007   26.4711 C.3       1 UNK         0.0000 
     52 H52        20.4036   28.3652   27.0428 H         1 UNK         0.0000 
     53 H53        20.9183   27.6329   25.5565 H         1 UNK         0.0000 
     54 N54        22.2989   27.2099   27.0804 N.am      1 UNK         0.0000 
     55 H55        21.8867   26.7106   27.8585 H         1 UNK         0.0000 
     56 C56        23.7029   27.2017   27.1038 C.2       1 UNK         0.0000 
     57 O57        24.4127   27.8436   26.3369 O.2       1 UNK         0.0000 
     58 C58        24.3658   26.4799   28.2813 C.3       1 UNK         0.0000 
     59 H59        23.9760   25.4555   28.3203 H         1 UNK         0.0000 
     60 C60        23.9260   27.2537   29.5805 C.3       1 UNK         0.0000 
     61 H61        24.0931   28.3293   29.4530 H         1 UNK         0.0000 
     62 H62        24.6257   27.0570   30.4020 H         1 UNK         0.0000 
     63 C63        22.4738   26.9877   30.0762 C.ar      1 UNK         0.0000 
     64 C64        21.8452   28.0316   30.8029 C.ar      1 UNK         0.0000 
     65 H65        22.3787   28.9413   31.0615 H         1 UNK         0.0000 
     66 C66        20.5421   27.8627   31.2331 C.ar      1 UNK         0.0000 
     67 H67        20.1206   28.6208   31.8869 H         1 UNK         0.0000 
     68 C68        19.8893   26.6765   30.8256 C.ar      1 UNK         0.0000 
     69 H69        18.8718   26.5327   31.1789 H         1 UNK         0.0000 
     70 C70        20.5057   25.7358   30.0168 C.ar      1 UNK         0.0000 
     71 H71        20.0012   24.8483   29.6382 H         1 UNK         0.0000 
     72 N72        21.8044   25.9363   29.6660 N.ar      1 UNK         0.0000 
     73 C73        26.3900   -1.0818   26.8922 C.3       1 UNK         0.0000 
     74 H74        27.1737   -0.9342   27.6457 H         1 UNK         0.0000 
     75 H75        26.8492   -1.7355   26.1403 H         1 UNK         0.0000 
     76 H76        25.5037   -1.6083   27.2674 H         1 UNK         0.0000 
     77 S77        25.9010    0.4590   26.1868 S.3       1 UNK         0.0000 
     78 C78        24.9770    1.1200   27.6035 C.3       1 UNK         0.0000 
     79 H79        25.7624    1.5220   28.2551 H         1 UNK         0.0000 
     80 H80        24.5222    0.2644   28.1175 H         1 UNK         0.0000 
     81 H81        24.1807    1.8090   27.2961 H         1 UNK         0.0000 
     82 O82        24.8496    0.2183   25.1214 O.2       1 UNK         0.0000 
@<TRIPOS>BOND
     1    1    3 1    
     2    1    4 1    
     3    1    2 1    
     4    1    5 1    
     5    5   14 1    
     6    5    6 1    
     7    5   10 1    
     8    6    8 1    
     9    6    7 1    
    10    6    9 1    
    11   10   13 1    
    12   10   11 1    
    13   10   12 1    
    14   14   15 1    
    15   15   16 2    
    16   15   17 am   BACKBONE|DICT|INTERRES
    17   17   19 1    
    18   17   18 1    
    19   19   24 1    
    20   19   25 1    
    21   19   20 1    
    22   20   23 2    
    23   20   21 am   BACKBONE|DICT|INTERRES
    24   21   22 1    
    25   21   58 1    
    26   25   26 1    
    27   25   27 1    
    28   25   28 1    
    29   28   33 ar   
    30   28   29 ar   
    31   29   30 ar   
    32   29   32 1    
    33   30   37 ar   
    34   30   31 1    
    35   33   34 1    
    36   33   35 ar   
    37   35   36 1    
    38   35   37 ar   
    39   37   38 1    
    40   38   39 1    
    41   39   40 ar   
    42   39   44 ar   
    43   40   43 1    
    44   40   41 ar   
    45   41   42 1    
    46   41   48 ar   
    47   44   45 1    
    48   44   46 ar   
    49   46   48 ar   
    50   46   47 1    
    51   48   49 1    
    52   49   51 1    
    53   49   50 2    
    54   51   52 1    
    55   51   54 1    
    56   51   53 1    
    57   54   56 am   BACKBONE|DICT|INTERRES
    58   54   55 1    
    59   56   58 1    
    60   56   57 2    
    61   58   59 1    
    62   58   60 1    
    63   60   63 1    
    64   60   62 1    
    65   60   61 1    
    66   63   64 ar   
    67   63   72 ar   
    68   64   66 ar   
    69   64   65 1    
    70   66   67 1    
    71   66   68 ar   
    72   68   69 1    
    73   68   70 ar   
    74   70   71 1    
    75   70   72 ar   
    76   73   76 1    
    77   73   74 1    
    78   73   75 1    
    79   73   77 1    
    80   77   78 1    
    81   77   82 2    
    82   78   80 1    
    83   78   79 1    
    84   78   81 1    
@<TRIPOS>SUBSTRUCTURE
     1 UNK         1 GROUP             0       ****    0 ROOT    
@<TRIPOS>MOLECULE
Cpd5-3000
82   84    1
SMALL
USER_CHARGES


@<TRIPOS>ATOM
      1 C1         32.0832   27.9675   26.2364 C.3       1 UNK         0.0000 
      2 H2         32.1695   26.9295   26.5816 H         1 UNK         0.0000 
      3 H3         32.9813   28.4136   25.7916 H         1 UNK         0.0000 
      4 H4         31.8812   28.4900   27.1797 H         1 UNK         0.0000 
      5 C5         30.8301   28.0420   25.3220 C.3       1 UNK         0.0000 
      6 C6         31.0121   27.1215   24.1591 C.3       1 UNK         0.0000 
      7 H7         30.1215   27.2276   23.5289 H         1 UNK         0.0000 
      8 H8         31.7910   27.5749   23.5329 H         1 UNK         0.0000 
      9 H9         31.2378   26.0767   24.4073 H         1 UNK         0.0000 
     10 C10        30.7175   29.4315   24.7591 C.3       1 UNK         0.0000 
     11 H11        29.8262   29.5515   24.1312 H         1 UNK         0.0000 
     12 H12        30.8092   30.2485   25.4849 H         1 UNK         0.0000 
     13 H13        31.6085   29.6102   24.1454 H         1 UNK         0.0000 
     14 O14        29.6078   27.7412   25.9710 O.3       1 UNK         0.0000 
     15 C15        29.3536   26.5129   26.4826 C.2       1 UNK         0.0000 
     16 O16        30.1538   25.6299   26.6320 O.2       1 UNK         0.0000 
     17 N17        28.2504   26.7093   27.2944 N.am      1 UNK         0.0000 
     18 H18        27.6939   27.5145   27.0337 H         1 UNK         0.0000 
     19 C19        28.0560   26.0379   28.6033 C.3       1 UNK         0.0000 
     20 C20        26.5391   25.7443   28.8952 C.2       1 UNK         0.0000 
     21 N21        25.4778   26.3095   28.1785 N.am      1 UNK         0.0000 
     22 H22        25.6968   26.8820   27.3727 H         1 UNK         0.0000 
     23 O23        26.3259   24.9335   29.7131 O.2       1 UNK         0.0000 
     24 H24        28.4386   25.0095   28.5944 H         1 UNK         0.0000 
     25 C25        28.7941   26.8623   29.6668 C.3       1 UNK         0.0000 
     26 H26        29.8688   26.9068   29.4487 H         1 UNK         0.0000 
     27 H27        28.8203   26.1294   30.4825 H         1 UNK         0.0000 
     28 C28        28.1281   28.2484   29.8115 C.ar      1 UNK         0.0000 
     29 C29        28.4554   29.2801   28.9098 C.ar      1 UNK         0.0000 
     30 C30        27.6911   30.4349   28.8683 C.ar      1 UNK         0.0000 
     31 H31        27.7986   31.2298   28.1365 H         1 UNK         0.0000 
     32 H32        29.1378   29.1044   28.0841 H         1 UNK         0.0000 
     33 C33        27.1063   28.4724   30.7823 C.ar      1 UNK         0.0000 
     34 H34        26.8161   27.6465   31.4247 H         1 UNK         0.0000 
     35 C35        26.3809   29.7122   30.7312 C.ar      1 UNK         0.0000 
     36 H36        25.6124   29.9803   31.4514 H         1 UNK         0.0000 
     37 C37        26.6243   30.6092   29.7877 C.ar      1 UNK         0.0000 
     38 O38        25.8213   31.6479   29.5669 O.3       1 UNK         0.0000 
     39 C39        24.8397   31.4833   28.6332 C.ar      1 UNK         0.0000 
     40 C40        23.7176   30.7751   29.0815 C.ar      1 UNK         0.0000 
     41 C41        22.8471   30.2004   28.1389 C.ar      1 UNK         0.0000 
     42 H42        22.0765   29.5458   28.5357 H         1 UNK         0.0000 
     43 H43        23.5394   30.4623   30.1065 H         1 UNK         0.0000 
     44 C44        24.9947   31.8498   27.2577 C.ar      1 UNK         0.0000 
     45 H45        25.9001   32.3465   26.9225 H         1 UNK         0.0000 
     46 C46        24.1211   31.3324   26.3065 C.ar      1 UNK         0.0000 
     47 H47        24.3496   31.4519   25.2517 H         1 UNK         0.0000 
     48 C48        23.1141   30.4462   26.7346 C.ar      1 UNK         0.0000 
     49 C49        22.3663   29.6261   25.7411 C.2       1 UNK         0.0000 
     50 O50        22.1324   30.0554   24.6375 O.2       1 UNK         0.0000 
     51 C51        22.0593   28.1478   26.0578 C.3       1 UNK         0.0000 
     52 H52        21.1926   28.1408   26.7296 H         1 UNK         0.0000 
     53 H53        21.7998   27.7705   25.0607 H         1 UNK         0.0000 
     54 N54        23.2547   27.3850   26.5710 N.am      1 UNK         0.0000 
     55 H55        24.0022   28.0318   26.7923 H         1 UNK         0.0000 
     56 C56        23.1057   26.1685   27.2189 C.2       1 UNK         0.0000 
     57 O57        22.2330   25.3989   26.9165 O.2       1 UNK         0.0000 
     58 C58        24.0938   25.8446   28.3514 C.3       1 UNK         0.0000 
     59 H59        23.9647   24.7686   28.5169 H         1 UNK         0.0000 
     60 C60        23.6681   26.5717   29.6464 C.3       1 UNK         0.0000 
     61 H61        23.8125   27.6568   29.5762 H         1 UNK         0.0000 
     62 H62        24.2297   26.3171   30.5530 H         1 UNK         0.0000 
     63 C63        22.2894   26.1672   30.0868 C.ar      1 UNK         0.0000 
     64 C64        22.0293   24.9222   30.6861 C.ar      1 UNK         0.0000 
     65 H65        22.8650   24.2593   30.8880 H         1 UNK         0.0000 
     66 C66        20.7568   24.6802   31.1944 C.ar      1 UNK         0.0000 
     67 H67        20.5680   23.7539   31.7296 H         1 UNK         0.0000 
     68 C68        19.8682   25.7278   31.2102 C.ar      1 UNK         0.0000 
     69 H69        18.9832   25.5223   31.8050 H         1 UNK         0.0000 
     70 C70        20.1670   26.9590   30.6712 C.ar      1 UNK         0.0000 
     71 H71        19.5041   27.8173   30.7749 H         1 UNK         0.0000 
     72 N72        21.3375   27.1746   30.0483 N.ar      1 UNK         0.0000 
     73 C73        27.1644   27.9700   23.3855 C.3       1 UNK         0.0000 
     74 H74        28.1944   28.2655   23.6193 H         1 UNK         0.0000 
     75 H75        27.0837   27.9429   22.2924 H         1 UNK         0.0000 
     76 H76        27.0116   26.9546   23.7729 H         1 UNK         0.0000 
     77 S77        25.9517   29.0008   24.1811 S.3       1 UNK         0.0000 
     78 C78        26.9883   30.4634   24.0414 C.3       1 UNK         0.0000 
     79 H79        27.4276   30.5611   23.0409 H         1 UNK         0.0000 
     80 H80        27.7911   30.5120   24.7874 H         1 UNK         0.0000 
     81 H81        26.2750   31.2231   24.3839 H         1 UNK         0.0000 
     82 O82        26.0602   28.5158   25.5788 O.2       1 UNK         0.0000 
@<TRIPOS>BOND
     1    1    2 1    
     2    1    4 1    
     3    1    3 1    
     4    1    5 1    
     5    5   14 1    
     6    5    6 1    
     7    5   10 1    
     8    6    9 1    
     9    6    7 1    
    10    6    8 1    
    11   10   12 1    
    12   10   11 1    
    13   10   13 1    
    14   14   15 1    
    15   15   16 2    
    16   15   17 am   BACKBONE|DICT|INTERRES
    17   17   19 1    
    18   17   18 1    
    19   19   24 1    
    20   19   20 1    
    21   19   25 1    
    22   20   23 2    
    23   20   21 am   BACKBONE|DICT|INTERRES
    24   21   58 1    
    25   21   22 1    
    26   25   27 1    
    27   25   26 1    
    28   25   28 1    
    29   28   33 ar   
    30   28   29 ar   
    31   29   30 ar   
    32   29   32 1    
    33   30   37 ar   
    34   30   31 1    
    35   33   34 1    
    36   33   35 ar   
    37   35   36 1    
    38   35   37 ar   
    39   37   38 1    
    40   38   39 1    
    41   39   40 ar   
    42   39   44 ar   
    43   40   43 1    
    44   40   41 ar   
    45   41   42 1    
    46   41   48 ar   
    47   44   45 1    
    48   44   46 ar   
    49   46   48 ar   
    50   46   47 1    
    51   48   49 1    
    52   49   51 1    
    53   49   50 2    
    54   51   52 1    
    55   51   54 1    
    56   51   53 1    
    57   54   55 1    
    58   54   56 am   BACKBONE|DICT|INTERRES
    59   56   58 1    
    60   56   57 2    
    61   58   59 1    
    62   58   60 1    
    63   60   63 1    
    64   60   62 1    
    65   60   61 1    
    66   63   64 ar   
    67   63   72 ar   
    68   64   65 1    
    69   64   66 ar   
    70   66   67 1    
    71   66   68 ar   
    72   68   69 1    
    73   68   70 ar   
    74   70   71 1    
    75   70   72 ar   
    76   73   74 1    
    77   73   76 1    
    78   73   77 1    
    79   73   75 1    
    80   77   82 2    
    81   77   78 1    
    82   78   81 1    
    83   78   80 1    
    84   78   79 1    
@<TRIPOS>SUBSTRUCTURE
     1 UNK         1 GROUP             0       ****    0 ROOT    
@<TRIPOS>MOLECULE
Cpd5-3500-MRC
82   84    1
SMALL
USER_CHARGES


@<TRIPOS>ATOM
      1 C1         32.0459   26.9504   25.5915 C.3       1 UNK         0.0000 
      2 H2         32.2843   26.2557   26.4060 H         1 UNK         0.0000 
      3 H3         32.8630   26.9310   24.8600 H         1 UNK         0.0000 
      4 H4         31.8973   27.9465   26.0275 H         1 UNK         0.0000 
      5 C5         30.9483   26.5804   24.7449 C.3       1 UNK         0.0000 
      6 C6         31.0922   25.2511   24.0782 C.3       1 UNK         0.0000 
      7 H7         31.9160   25.3081   23.3567 H         1 UNK         0.0000 
      8 H8         31.2857   24.5056   24.8598 H         1 UNK         0.0000 
      9 H9         30.1707   25.0978   23.5031 H         1 UNK         0.0000 
     10 C10        30.7125   27.6203   23.6499 C.3       1 UNK         0.0000 
     11 H11        29.8834   27.3668   22.9792 H         1 UNK         0.0000 
     12 H12        30.6344   28.5868   24.1631 H         1 UNK         0.0000 
     13 H13        31.5629   27.7969   22.9801 H         1 UNK         0.0000 
     14 O14        29.7268   26.6217   25.5513 O.3       1 UNK         0.0000 
     15 C15        29.5615   25.8340   26.6320 C.2       1 UNK         0.0000 
     16 O16        30.3418   25.0340   27.1871 O.2       1 UNK         0.0000 
     17 N17        28.4700   26.3506   27.2849 N.am      1 UNK         0.0000 
     18 H18        28.0491   27.0758   26.7182 H         1 UNK         0.0000 
     19 C19        27.8986   25.9467   28.5997 C.3       1 UNK         0.0000 
     20 C20        26.3788   25.7236   28.7702 C.2       1 UNK         0.0000 
     21 N21        25.4641   26.4204   27.9945 N.am      1 UNK         0.0000 
     22 H22        25.7464   27.2560   27.4953 H         1 UNK         0.0000 
     23 O23        26.0734   24.9697   29.7014 O.2       1 UNK         0.0000 
     24 H24        28.3571   24.9554   28.7070 H         1 UNK         0.0000 
     25 C25        28.5291   26.7752   29.7579 C.3       1 UNK         0.0000 
     26 H26        29.5778   26.9189   29.4715 H         1 UNK         0.0000 
     27 H27        28.4154   26.2515   30.7153 H         1 UNK         0.0000 
     28 C28        28.0100   28.2330   29.8880 C.ar      1 UNK         0.0000 
     29 C29        28.4061   29.1695   28.8975 C.ar      1 UNK         0.0000 
     30 C30        27.7577   30.3807   28.7946 C.ar      1 UNK         0.0000 
     31 H31        27.9305   30.9913   27.9133 H         1 UNK         0.0000 
     32 H32        29.1244   28.8534   28.1467 H         1 UNK         0.0000 
     33 C33        27.0580   28.6211   30.9107 C.ar      1 UNK         0.0000 
     34 H34        26.9084   27.9228   31.7281 H         1 UNK         0.0000 
     35 C35        26.3568   29.8373   30.7682 C.ar      1 UNK         0.0000 
     36 H36        25.5578   30.1079   31.4522 H         1 UNK         0.0000 
     37 C37        26.6907   30.6594   29.6619 C.ar      1 UNK         0.0000 
     38 O38        25.9532   31.8087   29.4306 O.3       1 UNK         0.0000 
     39 C39        24.9707   31.4920   28.5745 C.ar      1 UNK         0.0000 
     40 C40        23.6552   31.1167   29.0178 C.ar      1 UNK         0.0000 
     41 C41        22.8294   30.4212   28.1413 C.ar      1 UNK         0.0000 
     42 H42        21.8002   30.1403   28.3462 H         1 UNK         0.0000 
     43 H43        23.4186   31.2125   30.0734 H         1 UNK         0.0000 
     44 C44        25.2924   31.3102   27.2268 C.ar      1 UNK         0.0000 
     45 H45        26.2213   31.6832   26.8045 H         1 UNK         0.0000 
     46 C46        24.4453   30.5772   26.3442 C.ar      1 UNK         0.0000 
     47 H47        24.6741   30.5614   25.2821 H         1 UNK         0.0000 
     48 C48        23.2346   30.0859   26.8500 C.ar      1 UNK         0.0000 
     49 C49        22.3396   29.3419   25.9282 C.2       1 UNK         0.0000 
     50 O50        21.1597   29.6305   25.8818 O.2       1 UNK         0.0000 
     51 C51        22.9498   28.0831   25.1587 C.3       1 UNK         0.0000 
     52 H52        22.2116   27.4896   24.6061 H         1 UNK         0.0000 
     53 H53        23.6380   28.3853   24.3593 H         1 UNK         0.0000 
     54 N54        23.7102   27.2105   26.0992 N.am      1 UNK         0.0000 
     55 H55        24.7048   27.0838   25.9607 H         1 UNK         0.0000 
     56 C56        23.1298   26.5558   27.1509 C.2       1 UNK         0.0000 
     57 O57        21.9294   26.3258   27.1984 O.2       1 UNK         0.0000 
     58 C58        24.0574   26.3100   28.4141 C.3       1 UNK         0.0000 
     59 H59        23.8357   25.2900   28.7523 H         1 UNK         0.0000 
     60 C60        23.6223   27.2620   29.5764 C.3       1 UNK         0.0000 
     61 H61        24.0418   28.2322   29.2837 H         1 UNK         0.0000 
     62 H62        24.1833   26.9420   30.4640 H         1 UNK         0.0000 
     63 C63        22.1384   27.2224   30.0184 C.ar      1 UNK         0.0000 
     64 C64        21.4388   26.0419   30.2172 C.ar      1 UNK         0.0000 
     65 H65        21.9879   25.1110   30.1092 H         1 UNK         0.0000 
     66 C66        20.0742   26.0592   30.4801 C.ar      1 UNK         0.0000 
     67 H67        19.4881   25.1667   30.6831 H         1 UNK         0.0000 
     68 C68        19.4232   27.2673   30.6712 C.ar      1 UNK         0.0000 
     69 H69        18.3540   27.2633   30.8595 H         1 UNK         0.0000 
     70 C70        20.1416   28.4261   30.5101 C.ar      1 UNK         0.0000 
     71 H71        19.6546   29.3993   30.5243 H         1 UNK         0.0000 
     72 N72        21.4620   28.4244   30.1462 N.ar      1 UNK         0.0000 
     73 C73        27.0719   27.5668   23.2648 C.3       1 UNK         0.0000 
     74 H74        26.1371   27.2081   22.8166 H         1 UNK         0.0000 
     75 H75        27.5576   26.7996   23.8794 H         1 UNK         0.0000 
     76 H76        27.7607   27.9729   22.5142 H         1 UNK         0.0000 
     77 S77        26.5391   28.7972   24.4218 S.3       1 UNK         0.0000 
     78 C78        28.0717   29.7801   24.4400 C.3       1 UNK         0.0000 
     79 H79        28.8294   29.3043   25.0748 H         1 UNK         0.0000 
     80 H80        27.7459   30.7998   24.6780 H         1 UNK         0.0000 
     81 H81        28.3819   29.9364   23.4001 H         1 UNK         0.0000 
     82 O82        26.6465   27.9304   25.6410 O.2       1 UNK         0.0000 
@<TRIPOS>BOND
     1    1    4 1    
     2    1    2 1    
     3    1    3 1    
     4    1    5 1    
     5    5   14 1    
     6    5    6 1    
     7    5   10 1    
     8    6    8 1    
     9    6    7 1    
    10    6    9 1    
    11   10   12 1    
    12   10   11 1    
    13   10   13 1    
    14   14   15 1    
    15   15   17 am   BACKBONE|DICT|INTERRES
    16   15   16 2    
    17   17   19 1    
    18   17   18 1    
    19   19   20 1    
    20   19   24 1    
    21   19   25 1    
    22   20   23 2    
    23   20   21 am   BACKBONE|DICT|INTERRES
    24   21   58 1    
    25   21   22 1    
    26   25   27 1    
    27   25   26 1    
    28   25   28 1    
    29   28   33 ar   
    30   28   29 ar   
    31   29   30 ar   
    32   29   32 1    
    33   30   37 ar   
    34   30   31 1    
    35   33   34 1    
    36   33   35 ar   
    37   35   36 1    
    38   35   37 ar   
    39   37   38 1    
    40   38   39 1    
    41   39   40 ar   
    42   39   44 ar   
    43   40   43 1    
    44   40   41 ar   
    45   41   42 1    
    46   41   48 ar   
    47   44   45 1    
    48   44   46 ar   
    49   46   48 ar   
    50   46   47 1    
    51   48   49 1    
    52   49   50 2    
    53   49   51 1    
    54   51   54 1    
    55   51   52 1    
    56   51   53 1    
    57   54   56 am   BACKBONE|DICT|INTERRES
    58   54   55 1    
    59   56   57 2    
    60   56   58 1    
    61   58   59 1    
    62   58   60 1    
    63   60   63 1    
    64   60   62 1    
    65   60   61 1    
    66   63   72 ar   
    67   63   64 ar   
    68   64   66 ar   
    69   64   65 1    
    70   66   68 ar   
    71   66   67 1    
    72   68   69 1    
    73   68   70 ar   
    74   70   71 1    
    75   70   72 ar   
    76   73   75 1    
    77   73   77 1    
    78   73   74 1    
    79   73   76 1    
    80   77   82 2    
    81   77   78 1    
    82   78   80 1    
    83   78   79 1    
    84   78   81 1    
@<TRIPOS>SUBSTRUCTURE
     1 UNK         1 GROUP             0       ****    0 ROOT    
@<TRIPOS>MOLECULE
Cpd5-4000
82   84    1
SMALL
USER_CHARGES


@<TRIPOS>ATOM
      1 C1         31.1530   26.5330   24.4208 C.3       1 UNK         0.0000 
      2 H2         31.1006   27.4729   24.9848 H         1 UNK         0.0000 
      3 H3         31.5145   25.7102   25.0499 H         1 UNK         0.0000 
      4 H4         31.8445   26.7005   23.5858 H         1 UNK         0.0000 
      5 C5         29.7586   26.0875   24.0400 C.3       1 UNK         0.0000 
      6 C6         29.7510   24.6188   23.6385 C.3       1 UNK         0.0000 
      7 H7         28.8310   24.3992   23.0825 H         1 UNK         0.0000 
      8 H8         30.6294   24.4723   22.9990 H         1 UNK         0.0000 
      9 H9         29.7759   23.9447   24.5039 H         1 UNK         0.0000 
     10 C10        29.2647   26.9004   22.8138 C.3       1 UNK         0.0000 
     11 H11        28.2637   26.5233   22.5721 H         1 UNK         0.0000 
     12 H12        29.0571   27.9216   23.1584 H         1 UNK         0.0000 
     13 H13        29.7091   26.8902   21.8117 H         1 UNK         0.0000 
     14 O14        28.8033   26.2883   25.1503 O.3       1 UNK         0.0000 
     15 C15        29.0664   25.7589   26.3296 C.2       1 UNK         0.0000 
     16 O16        29.9782   25.0298   26.7417 O.2       1 UNK         0.0000 
     17 N17        28.0126   26.2109   27.0700 N.am      1 UNK         0.0000 
     18 H18        27.2990   26.8016   26.6606 H         1 UNK         0.0000 
     19 C19        27.9245   25.8709   28.4980 C.3       1 UNK         0.0000 
     20 C20        26.5648   25.6489   29.0494 C.2       1 UNK         0.0000 
     21 N21        25.5114   26.0474   28.2346 N.am      1 UNK         0.0000 
     22 H22        25.7077   26.3708   27.2956 H         1 UNK         0.0000 
     23 O23        26.4046   25.3507   30.2164 O.2       1 UNK         0.0000 
     24 H24        28.4150   24.8992   28.6336 H         1 UNK         0.0000 
     25 C25        28.7031   26.9302   29.2974 C.3       1 UNK         0.0000 
     26 H26        29.7029   27.0806   28.8703 H         1 UNK         0.0000 
     27 H27        28.8957   26.5282   30.2996 H         1 UNK         0.0000 
     28 C28        27.9505   28.2624   29.4431 C.ar      1 UNK         0.0000 
     29 C29        28.2411   29.3959   28.6855 C.ar      1 UNK         0.0000 
     30 C30        27.5035   30.5788   28.8595 C.ar      1 UNK         0.0000 
     31 H31        27.7048   31.3673   28.1406 H         1 UNK         0.0000 
     32 H32        28.9894   29.2820   27.9073 H         1 UNK         0.0000 
     33 C33        26.9954   28.3798   30.4777 C.ar      1 UNK         0.0000 
     34 H34        26.8448   27.5804   31.1982 H         1 UNK         0.0000 
     35 C35        26.2813   29.5563   30.6647 C.ar      1 UNK         0.0000 
     36 H36        25.5016   29.7253   31.4011 H         1 UNK         0.0000 
     37 C37        26.4933   30.6263   29.8002 C.ar      1 UNK         0.0000 
     38 O38        25.7370   31.7340   29.7697 O.3       1 UNK         0.0000 
     39 C39        24.8206   31.5176   28.7855 C.ar      1 UNK         0.0000 
     40 C40        23.7984   30.6595   29.1080 C.ar      1 UNK         0.0000 
     41 C41        22.9661   30.1094   28.0997 C.ar      1 UNK         0.0000 
     42 H42        22.2269   29.4014   28.4599 H         1 UNK         0.0000 
     43 H43        23.5918   30.3591   30.1308 H         1 UNK         0.0000 
     44 C44        24.9966   31.9334   27.4801 C.ar      1 UNK         0.0000 
     45 H45        25.8209   32.5902   27.2164 H         1 UNK         0.0000 
     46 C46        24.2503   31.3469   26.4293 C.ar      1 UNK         0.0000 
     47 H47        24.5070   31.5525   25.3942 H         1 UNK         0.0000 
     48 C48        23.2466   30.4089   26.7383 C.ar      1 UNK         0.0000 
     49 C49        22.5301   29.6395   25.6950 C.2       1 UNK         0.0000 
     50 O50        22.2659   30.2783   24.6605 O.2       1 UNK         0.0000 
     51 C51        22.2182   28.1319   25.9364 C.3       1 UNK         0.0000 
     52 H52        21.2097   28.0552   26.3610 H         1 UNK         0.0000 
     53 H53        22.1631   27.8133   24.8886 H         1 UNK         0.0000 
     54 N54        23.2976   27.3605   26.7201 N.am      1 UNK         0.0000 
     55 H55        24.0542   27.9724   27.0006 H         1 UNK         0.0000 
     56 C56        23.1660   26.1206   27.2454 C.2       1 UNK         0.0000 
     57 O57        22.3215   25.3713   26.7692 O.2       1 UNK         0.0000 
     58 C58        24.0914   25.7467   28.4972 C.3       1 UNK         0.0000 
     59 H59        24.0064   24.7098   28.8456 H         1 UNK         0.0000 
     60 C60        23.5356   26.5656   29.6336 C.3       1 UNK         0.0000 
     61 H61        23.5129   27.6122   29.3055 H         1 UNK         0.0000 
     62 H62        24.1850   26.5328   30.5171 H         1 UNK         0.0000 
     63 C63        22.0666   26.1391   29.9925 C.ar      1 UNK         0.0000 
     64 C64        21.9000   24.8810   30.6568 C.ar      1 UNK         0.0000 
     65 H65        22.7301   24.1876   30.7495 H         1 UNK         0.0000 
     66 C66        20.6012   24.5022   31.0091 C.ar      1 UNK         0.0000 
     67 H67        20.2889   23.5866   31.5035 H         1 UNK         0.0000 
     68 C68        19.5435   25.3884   30.6701 C.ar      1 UNK         0.0000 
     69 H69        18.5030   25.2013   30.9218 H         1 UNK         0.0000 
     70 C70        19.8315   26.5162   29.9758 C.ar      1 UNK         0.0000 
     71 H71        19.0474   27.2550   29.8191 H         1 UNK         0.0000 
     72 N72        21.0755   26.8963   29.6586 N.ar      1 UNK         0.0000 
     73 C73        27.2495   30.0403   24.7720 C.3       1 UNK         0.0000 
     74 H74        28.3065   29.8477   24.9895 H         1 UNK         0.0000 
     75 H75        26.8199   30.3665   25.7273 H         1 UNK         0.0000 
     76 H76        27.1516   30.7104   23.9095 H         1 UNK         0.0000 
     77 S77        26.5252   28.4684   24.3280 S.3       1 UNK         0.0000 
     78 C78        25.1391   29.1804   23.4186 C.3       1 UNK         0.0000 
     79 H79        25.4307   29.8176   22.5752 H         1 UNK         0.0000 
     80 H80        24.5970   29.7790   24.1608 H         1 UNK         0.0000 
     81 H81        24.4907   28.4124   22.9799 H         1 UNK         0.0000 
     82 O82        26.1199   27.7913   25.6276 O.2       1 UNK         0.0000 
@<TRIPOS>BOND
     1    1    2 1    
     2    1    3 1    
     3    1    4 1    
     4    1    5 1    
     5    5   14 1    
     6    5    6 1    
     7    5   10 1    
     8    6    9 1    
     9    6    7 1    
    10    6    8 1    
    11   10   12 1    
    12   10   11 1    
    13   10   13 1    
    14   14   15 1    
    15   15   17 am   BACKBONE|DICT|INTERRES
    16   15   16 2    
    17   17   19 1    
    18   17   18 1    
    19   19   24 1    
    20   19   20 1    
    21   19   25 1    
    22   20   23 2    
    23   20   21 am   BACKBONE|DICT|INTERRES
    24   21   58 1    
    25   21   22 1    
    26   25   27 1    
    27   25   26 1    
    28   25   28 1    
    29   28   33 ar   
    30   28   29 ar   
    31   29   30 ar   
    32   29   32 1    
    33   30   37 ar   
    34   30   31 1    
    35   33   34 1    
    36   33   35 ar   
    37   35   36 1    
    38   35   37 ar   
    39   37   38 1    
    40   38   39 1    
    41   39   40 ar   
    42   39   44 ar   
    43   40   43 1    
    44   40   41 ar   
    45   41   42 1    
    46   41   48 ar   
    47   44   45 1    
    48   44   46 ar   
    49   46   48 ar   
    50   46   47 1    
    51   48   49 1    
    52   49   51 1    
    53   49   50 2    
    54   51   52 1    
    55   51   54 1    
    56   51   53 1    
    57   54   55 1    
    58   54   56 am   BACKBONE|DICT|INTERRES
    59   56   58 1    
    60   56   57 2    
    61   58   59 1    
    62   58   60 1    
    63   60   63 1    
    64   60   62 1    
    65   60   61 1    
    66   63   64 ar   
    67   63   72 ar   
    68   64   65 1    
    69   64   66 ar   
    70   66   67 1    
    71   66   68 ar   
    72   68   69 1    
    73   68   70 ar   
    74   70   71 1    
    75   70   72 ar   
    76   73   74 1    
    77   73   75 1    
    78   73   76 1    
    79   73   77 1    
    80   77   82 2    
    81   77   78 1    
    82   78   80 1    
    83   78   79 1    
    84   78   81 1    
@<TRIPOS>SUBSTRUCTURE
     1 UNK         1 GROUP             0       ****    0 ROOT    
@<TRIPOS>MOLECULE
Cpd5-4500
82   84    1
SMALL
USER_CHARGES


@<TRIPOS>ATOM
      1 C1         32.0082   27.7892   26.1194 C.3       1 UNK         0.0000 
      2 H2         31.6920   28.8262   26.2832 H         1 UNK         0.0000 
      3 H3         32.1975   27.4077   27.1312 H         1 UNK         0.0000 
      4 H4         33.0205   27.7975   25.6970 H         1 UNK         0.0000 
      5 C5         31.0749   26.9693   25.2089 C.3       1 UNK         0.0000 
      6 C6         31.5977   25.4774   24.8632 C.3       1 UNK         0.0000 
      7 H7         32.2395   25.4862   23.9741 H         1 UNK         0.0000 
      8 H8         32.1643   25.0975   25.7232 H         1 UNK         0.0000 
      9 H9         30.8510   24.6905   24.6988 H         1 UNK         0.0000 
     10 C10        30.8854   27.7520   23.9088 C.3       1 UNK         0.0000 
     11 H11        30.2098   28.6139   23.9764 H         1 UNK         0.0000 
     12 H12        31.8278   28.2518   23.6518 H         1 UNK         0.0000 
     13 H13        30.6276   27.1051   23.0615 H         1 UNK         0.0000 
     14 O14        29.7656   26.9278   25.7698 O.3       1 UNK         0.0000 
     15 C15        29.6111   26.2179   26.9338 C.2       1 UNK         0.0000 
     16 O16        30.3884   25.5917   27.5549 O.2       1 UNK         0.0000 
     17 N17        28.3209   26.4287   27.3969 N.am      1 UNK         0.0000 
     18 H18        27.7447   27.0292   26.8187 H         1 UNK         0.0000 
     19 C19        27.9505   25.9540   28.8055 C.3       1 UNK         0.0000 
     20 C20        26.4833   25.6954   29.0563 C.2       1 UNK         0.0000 
     21 N21        25.5704   26.2502   28.1835 N.am      1 UNK         0.0000 
     22 H22        25.8774   26.8971   27.4655 H         1 UNK         0.0000 
     23 O23        26.1152   24.9181   29.9372 O.2       1 UNK         0.0000 
     24 H24        28.3381   24.9307   28.8798 H         1 UNK         0.0000 
     25 C25        28.6999   26.8959   29.8493 C.3       1 UNK         0.0000 
     26 H26        29.7512   26.9613   29.5430 H         1 UNK         0.0000 
     27 H27        28.7142   26.4514   30.8518 H         1 UNK         0.0000 
     28 C28        28.0086   28.2297   29.7510 C.ar      1 UNK         0.0000 
     29 C29        28.5835   29.2818   28.9328 C.ar      1 UNK         0.0000 
     30 C30        27.9393   30.5230   28.9485 C.ar      1 UNK         0.0000 
     31 H31        28.2668   31.3326   28.3040 H         1 UNK         0.0000 
     32 H32        29.4258   29.1049   28.2706 H         1 UNK         0.0000 
     33 C33        26.9184   28.4571   30.5977 C.ar      1 UNK         0.0000 
     34 H34        26.5882   27.5825   31.1505 H         1 UNK         0.0000 
     35 C35        26.2769   29.6901   30.5579 C.ar      1 UNK         0.0000 
     36 H36        25.2460   29.7536   30.8913 H         1 UNK         0.0000 
     37 C37        26.7828   30.6980   29.7690 C.ar      1 UNK         0.0000 
     38 O38        25.8689   31.6567   29.4737 O.3       1 UNK         0.0000 
     39 C39        24.8966   31.3535   28.5193 C.ar      1 UNK         0.0000 
     40 C40        23.6600   31.0568   29.0113 C.ar      1 UNK         0.0000 
     41 C41        22.6109   30.7528   28.1399 C.ar      1 UNK         0.0000 
     42 H42        21.6097   30.4479   28.4324 H         1 UNK         0.0000 
     43 H43        23.5181   31.2054   30.0782 H         1 UNK         0.0000 
     44 C44        25.2097   31.2822   27.1844 C.ar      1 UNK         0.0000 
     45 H45        26.2201   31.5510   26.8885 H         1 UNK         0.0000 
     46 C46        24.2538   30.7174   26.3472 C.ar      1 UNK         0.0000 
     47 H47        24.5976   30.6641   25.3180 H         1 UNK         0.0000 
     48 C48        22.9946   30.4220   26.8613 C.ar      1 UNK         0.0000 
     49 C49        22.1522   29.5134   25.9578 C.2       1 UNK         0.0000 
     50 O50        21.0416   29.8631   25.8017 O.2       1 UNK         0.0000 
     51 C51        22.8312   28.3480   25.3623 C.3       1 UNK         0.0000 
     52 H52        22.0501   27.7197   24.9169 H         1 UNK         0.0000 
     53 H53        23.4881   28.6322   24.5313 H         1 UNK         0.0000 
     54 N54        23.5083   27.6248   26.4643 N.am      1 UNK         0.0000 
     55 H55        24.1690   28.2063   26.9655 H         1 UNK         0.0000 
     56 C56        23.3163   26.3317   26.9429 C.2       1 UNK         0.0000 
     57 O57        22.5433   25.5773   26.4841 O.2       1 UNK         0.0000 
     58 C58        24.0639   25.9129   28.2219 C.3       1 UNK         0.0000 
     59 H59        23.9827   24.8194   28.1979 H         1 UNK         0.0000 
     60 C60        23.3752   26.5602   29.4187 C.3       1 UNK         0.0000 
     61 H61        23.4184   27.6297   29.1805 H         1 UNK         0.0000 
     62 H62        23.9997   26.3651   30.2989 H         1 UNK         0.0000 
     63 C63        21.9652   26.1586   29.8480 C.ar      1 UNK         0.0000 
     64 C64        20.8074   26.7697   29.3467 C.ar      1 UNK         0.0000 
     65 H65        20.8871   27.6366   28.6981 H         1 UNK         0.0000 
     66 C66        19.5517   26.2211   29.6676 C.ar      1 UNK         0.0000 
     67 H67        18.6618   26.6596   29.2261 H         1 UNK         0.0000 
     68 C68        19.4774   25.1590   30.5523 C.ar      1 UNK         0.0000 
     69 H69        18.5764   24.6350   30.8561 H         1 UNK         0.0000 
     70 C70        20.7148   24.5937   30.9350 C.ar      1 UNK         0.0000 
     71 H71        20.7037   23.8046   31.6845 H         1 UNK         0.0000 
     72 N72        21.8968   25.1245   30.6072 N.ar      1 UNK         0.0000 
     73 C73        27.4217   27.4901   23.4227 C.3       1 UNK         0.0000 
     74 H74        26.6892   26.8298   22.9435 H         1 UNK         0.0000 
     75 H75        28.0560   26.9333   24.1236 H         1 UNK         0.0000 
     76 H76        27.9996   27.9726   22.6244 H         1 UNK         0.0000 
     77 S77        26.4774   28.6516   24.4698 S.3       1 UNK         0.0000 
     78 C78        27.7804   29.8151   25.0136 C.3       1 UNK         0.0000 
     79 H79        28.4676   29.9618   24.1720 H         1 UNK         0.0000 
     80 H80        28.3879   29.4124   25.8339 H         1 UNK         0.0000 
     81 H81        27.3443   30.7609   25.3565 H         1 UNK         0.0000 
     82 O82        26.2239   27.9198   25.8166 O.2       1 UNK         0.0000 
@<TRIPOS>BOND
     1    1    2 1    
     2    1    3 1    
     3    1    4 1    
     4    1    5 1    
     5    5   14 1    
     6    5    6 1    
     7    5   10 1    
     8    6    8 1    
     9    6    7 1    
    10    6    9 1    
    11   10   11 1    
    12   10   12 1    
    13   10   13 1    
    14   14   15 1    
    15   15   17 am   BACKBONE|DICT|INTERRES
    16   15   16 2    
    17   17   19 1    
    18   17   18 1    
    19   19   24 1    
    20   19   20 1    
    21   19   25 1    
    22   20   23 2    
    23   20   21 am   BACKBONE|DICT|INTERRES
    24   21   58 1    
    25   21   22 1    
    26   25   27 1    
    27   25   26 1    
    28   25   28 1    
    29   28   33 ar   
    30   28   29 ar   
    31   29   30 ar   
    32   29   32 1    
    33   30   37 ar   
    34   30   31 1    
    35   33   34 1    
    36   33   35 ar   
    37   35   36 1    
    38   35   37 ar   
    39   37   38 1    
    40   38   39 1    
    41   39   40 ar   
    42   39   44 ar   
    43   40   43 1    
    44   40   41 ar   
    45   41   42 1    
    46   41   48 ar   
    47   44   45 1    
    48   44   46 ar   
    49   46   48 ar   
    50   46   47 1    
    51   48   49 1    
    52   49   50 2    
    53   49   51 1    
    54   51   54 1    
    55   51   52 1    
    56   51   53 1    
    57   54   55 1    
    58   54   56 am   BACKBONE|DICT|INTERRES
    59   56   58 1    
    60   56   57 2    
    61   58   59 1    
    62   58   60 1    
    63   60   63 1    
    64   60   62 1    
    65   60   61 1    
    66   63   72 ar   
    67   63   64 ar   
    68   64   66 ar   
    69   64   65 1    
    70   66   68 ar   
    71   66   67 1    
    72   68   69 1    
    73   68   70 ar   
    74   70   71 1    
    75   70   72 ar   
    76   73   75 1    
    77   73   77 1    
    78   73   74 1    
    79   73   76 1    
    80   77   78 1    
    81   77   82 2    
    82   78   81 1    
    83   78   80 1    
    84   78   79 1    
@<TRIPOS>SUBSTRUCTURE
     1 UNK         1 GROUP             0       ****    0 ROOT    
@<TRIPOS>MOLECULE
Cpd5-5000
82   84    1
SMALL
USER_CHARGES


@<TRIPOS>ATOM
      1 C1         31.1477   26.4997   24.5511 C.3       1 UNK         0.0000 
      2 H2         31.5492   25.7305   25.2218 H         1 UNK         0.0000 
      3 H3         31.9051   26.5280   23.7573 H         1 UNK         0.0000 
      4 H4         31.1315   27.4761   25.0505 H         1 UNK         0.0000 
      5 C5         29.8003   26.1005   23.9728 C.3       1 UNK         0.0000 
      6 C6         29.7158   24.6520   23.5047 C.3       1 UNK         0.0000 
      7 H7         30.1124   24.3937   22.5143 H         1 UNK         0.0000 
      8 H8         30.2972   23.9529   24.1183 H         1 UNK         0.0000 
      9 H9         28.6489   24.4041   23.4435 H         1 UNK         0.0000 
     10 C10        29.5587   26.9997   22.8041 C.3       1 UNK         0.0000 
     11 H11        30.2316   26.6664   22.0046 H         1 UNK         0.0000 
     12 H12        28.5544   26.8863   22.3778 H         1 UNK         0.0000 
     13 H13        29.7544   28.0460   23.0659 H         1 UNK         0.0000 
     14 O14        28.8238   26.4686   24.9553 O.3       1 UNK         0.0000 
     15 C15        28.7309   25.7566   26.0688 C.2       1 UNK         0.0000 
     16 O16        29.3481   24.7020   26.2719 O.2       1 UNK         0.0000 
     17 N17        27.8557   26.3030   26.9656 N.am      1 UNK         0.0000 
     18 H18        27.4444   27.1970   26.7257 H         1 UNK         0.0000 
     19 C19        27.8479   25.8717   28.3521 C.3       1 UNK         0.0000 
     20 C20        26.4476   25.7801   28.9901 C.2       1 UNK         0.0000 
     21 N21        25.4196   26.6096   28.5440 N.am      1 UNK         0.0000 
     22 H22        25.6182   27.1541   27.7122 H         1 UNK         0.0000 
     23 O23        26.2073   24.9369   29.8066 O.2       1 UNK         0.0000 
     24 H24        28.2151   24.8546   28.5353 H         1 UNK         0.0000 
     25 C25        28.6990   26.8836   29.2505 C.3       1 UNK         0.0000 
     26 H26        29.6933   27.0571   28.8228 H         1 UNK         0.0000 
     27 H27        28.8386   26.4497   30.2486 H         1 UNK         0.0000 
     28 C28        28.0661   28.2736   29.5290 C.ar      1 UNK         0.0000 
     29 C29        28.1793   29.2914   28.5586 C.ar      1 UNK         0.0000 
     30 C30        27.5532   30.4785   28.7371 C.ar      1 UNK         0.0000 
     31 H31        27.5545   31.1781   27.9065 H         1 UNK         0.0000 
     32 H32        28.5987   29.1550   27.5666 H         1 UNK         0.0000 
     33 C33        27.2626   28.5194   30.6731 C.ar      1 UNK         0.0000 
     34 H34        27.2562   27.8572   31.5338 H         1 UNK         0.0000 
     35 C35        26.5268   29.6779   30.7804 C.ar      1 UNK         0.0000 
     36 H36        25.8926   29.8170   31.6507 H         1 UNK         0.0000 
     37 C37        26.6707   30.6595   29.7954 C.ar      1 UNK         0.0000 
     38 O38        25.6860   31.5917   29.7468 O.3       1 UNK         0.0000 
     39 C39        24.7563   31.2986   28.7518 C.ar      1 UNK         0.0000 
     40 C40        23.8009   30.3184   29.0748 C.ar      1 UNK         0.0000 
     41 C41        22.9694   29.8872   28.0211 C.ar      1 UNK         0.0000 
     42 H42        22.1679   29.2264   28.3369 H         1 UNK         0.0000 
     43 H43        23.7353   29.9034   30.0763 H         1 UNK         0.0000 
     44 C44        24.8328   31.9650   27.5407 C.ar      1 UNK         0.0000 
     45 H45        25.6434   32.6572   27.3360 H         1 UNK         0.0000 
     46 C46        24.0308   31.4618   26.5048 C.ar      1 UNK         0.0000 
     47 H47        24.2945   31.6888   25.4764 H         1 UNK         0.0000 
     48 C48        23.1561   30.3460   26.6957 C.ar      1 UNK         0.0000 
     49 C49        22.6309   29.5559   25.5521 C.2       1 UNK         0.0000 
     50 O50        22.6149   30.0491   24.4384 O.2       1 UNK         0.0000 
     51 C51        22.3236   28.0056   25.7911 C.3       1 UNK         0.0000 
     52 H52        21.3459   27.9839   26.2871 H         1 UNK         0.0000 
     53 H53        22.1675   27.5459   24.8080 H         1 UNK         0.0000 
     54 N54        23.4616   27.2657   26.4818 N.am      1 UNK         0.0000 
     55 H55        24.3410   27.7332   26.6666 H         1 UNK         0.0000 
     56 C56        23.0839   26.3579   27.4549 C.2       1 UNK         0.0000 
     57 O57        22.0325   25.7681   27.4036 O.2       1 UNK         0.0000 
     58 C58        24.0202   26.1526   28.6865 C.3       1 UNK         0.0000 
     59 H59        23.9979   25.0693   28.8573 H         1 UNK         0.0000 
     60 C60        23.2603   26.5732   29.9692 C.3       1 UNK         0.0000 
     61 H61        22.2220   26.2262   29.9037 H         1 UNK         0.0000 
     62 H62        23.0683   27.6508   30.0441 H         1 UNK         0.0000 
     63 C63        23.8569   26.0352   31.2514 C.ar      1 UNK         0.0000 
     64 C64        24.6183   26.8294   32.0921 C.ar      1 UNK         0.0000 
     65 H65        24.7864   27.8620   31.8029 H         1 UNK         0.0000 
     66 C66        25.0470   26.2954   33.3326 C.ar      1 UNK         0.0000 
     67 H67        25.8206   26.7900   33.9119 H         1 UNK         0.0000 
     68 C68        24.6071   24.9698   33.7016 C.ar      1 UNK         0.0000 
     69 H69        25.0127   24.5478   34.6159 H         1 UNK         0.0000 
     70 C70        23.8218   24.3012   32.8001 C.ar      1 UNK         0.0000 
     71 H71        23.3734   23.3339   33.0207 H         1 UNK         0.0000 
     72 N72        23.4035   24.8682   31.6205 N.ar      1 UNK         0.0000 
     73 C73        25.9799   28.1830   23.8887 C.3       1 UNK         0.0000 
     74 H74        26.4525   27.3397   24.4084 H         1 UNK         0.0000 
     75 H75        26.2490   28.2688   22.8285 H         1 UNK         0.0000 
     76 H76        24.8981   28.0088   23.9380 H         1 UNK         0.0000 
     77 S77        26.2147   29.5648   25.0451 S.3       1 UNK         0.0000 
     78 C78        27.9597   29.8862   24.6399 C.3       1 UNK         0.0000 
     79 H79        28.2996   30.6617   25.3368 H         1 UNK         0.0000 
     80 H80        28.0646   30.3927   23.6724 H         1 UNK         0.0000 
     81 H81        28.5672   28.9785   24.7395 H         1 UNK         0.0000 
     82 O82        26.2299   28.8688   26.3758 O.2       1 UNK         0.0000 
@<TRIPOS>BOND
     1    1    4 1    
     2    1    2 1    
     3    1    3 1    
     4    1    5 1    
     5    5   14 1    
     6    5    6 1    
     7    5   10 1    
     8    6    8 1    
     9    6    7 1    
    10    6    9 1    
    11   10   13 1    
    12   10   11 1    
    13   10   12 1    
    14   14   15 1    
    15   15   16 2    
    16   15   17 am   BACKBONE|DICT|INTERRES
    17   17   19 1    
    18   17   18 1    
    19   19   20 1    
    20   19   24 1    
    21   19   25 1    
    22   20   23 2    
    23   20   21 am   BACKBONE|DICT|INTERRES
    24   21   22 1    
    25   21   58 1    
    26   25   28 1    
    27   25   27 1    
    28   25   26 1    
    29   28   33 ar   
    30   28   29 ar   
    31   29   30 ar   
    32   29   32 1    
    33   30   37 ar   
    34   30   31 1    
    35   33   34 1    
    36   33   35 ar   
    37   35   36 1    
    38   35   37 ar   
    39   37   38 1    
    40   38   39 1    
    41   39   40 ar   
    42   39   44 ar   
    43   40   43 1    
    44   40   41 ar   
    45   41   42 1    
    46   41   48 ar   
    47   44   45 1    
    48   44   46 ar   
    49   46   47 1    
    50   46   48 ar   
    51   48   49 1    
    52   49   51 1    
    53   49   50 2    
    54   51   52 1    
    55   51   54 1    
    56   51   53 1    
    57   54   55 1    
    58   54   56 am   BACKBONE|DICT|INTERRES
    59   56   58 1    
    60   56   57 2    
    61   58   59 1    
    62   58   60 1    
    63   60   62 1    
    64   60   63 1    
    65   60   61 1    
    66   63   72 ar   
    67   63   64 ar   
    68   64   66 ar   
    69   64   65 1    
    70   66   68 ar   
    71   66   67 1    
    72   68   69 1    
    73   68   70 ar   
    74   70   71 1    
    75   70   72 ar   
    76   73   74 1    
    77   73   77 1    
    78   73   75 1    
    79   73   76 1    
    80   77   78 1    
    81   77   82 2    
    82   78   81 1    
    83   78   79 1    
    84   78   80 1    
@<TRIPOS>SUBSTRUCTURE
     1 UNK         1 GROUP             0       ****    0 ROOT    
