@<TRIPOS>MOLECULE
Cpd5-500
72   75    1
SMALL
USER_CHARGES


@<TRIPOS>ATOM
      1 C1          6.6724    0.8810   -1.3412 C.3       1 UNK         0.0000 
      2 H2          6.4360    0.1954   -2.1555 H         1 UNK         0.0000 
      3 H3          7.3923    1.6221   -1.7011 H         1 UNK         0.0000 
      4 H4          7.1359    0.3227   -0.5221 H         1 UNK         0.0000 
      5 C5          5.4234    1.6019   -0.8432 C.3       1 UNK         0.0000 
      6 C6          4.6835    2.3288   -1.9622 C.3       1 UNK         0.0000 
      7 H7          3.7508    2.7554   -1.5810 H         1 UNK         0.0000 
      8 H8          5.3108    3.1462   -2.3299 H         1 UNK         0.0000 
      9 H9          4.4578    1.6585   -2.7922 H         1 UNK         0.0000 
     10 C10         5.7738    2.5678    0.2827 C.3       1 UNK         0.0000 
     11 H11         6.4564    3.3361   -0.0895 H         1 UNK         0.0000 
     12 H12         4.8714    3.0551    0.6622 H         1 UNK         0.0000 
     13 H13         6.2603    2.0359    1.1051 H         1 UNK         0.0000 
     14 O14         4.5268    0.6519   -0.1827 O.3       1 UNK         0.0000 
     15 C15         3.9612   -0.3514   -0.8712 C.2       1 UNK         0.0000 
     16 O16         4.1554   -0.6194   -2.0440 O.2       1 UNK         0.0000 
     17 N17         3.1120   -1.0500   -0.0632 N.am      1 UNK         0.0000 
     18 H18         3.0053   -0.7421    0.8945 H         1 UNK         0.0000 
     19 C19         2.3780   -2.1971   -0.5484 C.3       1 UNK         0.0000 
     20 C20         1.0073   -1.8397   -1.1495 C.2       1 UNK         0.0000 
     21 N21         0.5920   -0.5689   -0.9985 N.am      1 UNK         0.0000 
     22 H22         1.2120    0.1334   -0.6110 H         1 UNK         0.0000 
     23 O23         0.3330   -2.7103   -1.7004 O.2       1 UNK         0.0000 
     24 H24         2.9565   -2.6367   -1.3658 H         1 UNK         0.0000 
     25 C25         2.2071   -3.2607    0.5652 C.3       1 UNK         0.0000 
     26 H26         3.2033   -3.5173    0.9370 H         1 UNK         0.0000 
     27 H27         1.7718   -4.1507    0.1042 H         1 UNK         0.0000 
     28 C28         1.3159   -2.7524    1.6721 C.ar      1 UNK         0.0000 
     29 C29         1.8213   -2.0090    2.7447 C.ar      1 UNK         0.0000 
     30 C30         0.9678   -1.3121    3.6034 C.ar      1 UNK         0.0000 
     31 H31         1.3568   -0.6865    4.4005 H         1 UNK         0.0000 
     32 H32         2.8965   -1.9422    2.8969 H         1 UNK         0.0000 
     33 C33        -0.0723   -2.8979    1.5590 C.ar      1 UNK         0.0000 
     34 H34        -0.4762   -3.5160    0.7611 H         1 UNK         0.0000 
     35 C35        -0.9332   -2.2071    2.4027 C.ar      1 UNK         0.0000 
     36 H36        -2.0109   -2.2618    2.2762 H         1 UNK         0.0000 
     37 C37        -0.4016   -1.3682    3.3776 C.ar      1 UNK         0.0000 
     38 O38        -1.2643   -0.5204    4.0706 O.3       1 UNK         0.0000 
     39 C39        -1.6980    0.5116    3.2527 C.ar      1 UNK         0.0000 
     40 C40        -3.0657    0.7065    3.0744 C.ar      1 UNK         0.0000 
     41 C41        -3.4999    1.6679    2.1627 C.ar      1 UNK         0.0000 
     42 H42        -4.5604    1.8040    1.9735 H         1 UNK         0.0000 
     43 H43        -3.7680    0.0771    3.6105 H         1 UNK         0.0000 
     44 C44        -0.7663    1.3147    2.5923 C.ar      1 UNK         0.0000 
     45 H45         0.2946    1.1682    2.7633 H         1 UNK         0.0000 
     46 C46        -1.2071    2.2561    1.6752 C.ar      1 UNK         0.0000 
     47 H47        -0.4742    2.8420    1.1314 H         1 UNK         0.0000 
     48 C48        -2.5752    2.4173    1.4278 C.ar      1 UNK         0.0000 
     49 C49        -3.0530    3.2981    0.3203 C.2       1 UNK         0.0000 
     50 O50        -4.1288    3.8633    0.3586 O.2       1 UNK         0.0000 
     51 C51        -2.1721    3.3711   -0.9373 C.3       1 UNK         0.0000 
     52 H52        -2.7128    3.9496   -1.6887 H         1 UNK         0.0000 
     53 H53        -1.2213    3.8670   -0.7234 H         1 UNK         0.0000 
     54 N54        -1.8967    2.0284   -1.4144 N.am      1 UNK         0.0000 
     55 H55        -2.7048    1.4379   -1.6577 H         1 UNK         0.0000 
     56 C56        -0.6989    1.4299   -1.2684 C.2       1 UNK         0.0000 
     57 O57         0.3309    2.0222   -0.9481 O.2       1 UNK         0.0000 
     58 C58        -0.6915   -0.0989   -1.4813 C.3       1 UNK         0.0000 
     59 H59        -0.7719   -0.3054   -2.5577 H         1 UNK         0.0000 
     60 C60        -1.8580   -0.8091   -0.7402 C.3       1 UNK         0.0000 
     61 H61        -2.1547   -0.2163    0.1355 H         1 UNK         0.0000 
     62 H62        -1.4742   -1.7617   -0.3805 H         1 UNK         0.0000 
     63 C63        -3.0587   -1.0907   -1.6105 C.ar      1 UNK         0.0000 
     64 C64        -3.3821   -2.3991   -1.9786 C.ar      1 UNK         0.0000 
     65 H65        -2.7576   -3.2208   -1.6434 H         1 UNK         0.0000 
     66 C66        -4.4969   -2.6191   -2.7815 C.ar      1 UNK         0.0000 
     67 H67        -4.7684   -3.6270   -3.0791 H         1 UNK         0.0000 
     68 C68        -5.2544   -1.5277   -3.1988 C.ar      1 UNK         0.0000 
     69 H69        -6.1310   -1.6514   -3.8243 H         1 UNK         0.0000 
     70 C70        -4.8528   -0.2573   -2.7974 C.ar      1 UNK         0.0000 
     71 H71        -5.4065    0.6251   -3.1063 H         1 UNK         0.0000 
     72 N72        -3.7851   -0.0417   -2.0227 N.ar      1 UNK         0.0000 
@<TRIPOS>BOND
     1    1    5 1    
     2    1    4 1    
     3    1    2 1    
     4    1    3 1    
     5    5   14 1    
     6    5   10 1    
     7    5    6 1    
     8    6    7 1    
     9    6    8 1    
    10    6    9 1    
    11   10   12 1    
    12   10   13 1    
    13   10   11 1    
    14   14   15 1    
    15   15   17 am   BACKBONE|DICT|INTERRES
    16   15   16 2    
    17   17   18 1    
    18   17   19 1    
    19   19   24 1    
    20   19   25 1    
    21   19   20 1    
    22   20   21 am   BACKBONE|DICT|INTERRES
    23   20   23 2    
    24   21   22 1    
    25   21   58 1    
    26   25   26 1    
    27   25   28 1    
    28   25   27 1    
    29   28   29 ar   
    30   28   33 ar   
    31   29   32 1    
    32   29   30 ar   
    33   30   31 1    
    34   30   37 ar   
    35   33   35 ar   
    36   33   34 1    
    37   35   37 ar   
    38   35   36 1    
    39   37   38 1    
    40   38   39 1    
    41   39   40 ar   
    42   39   44 ar   
    43   40   43 1    
    44   40   41 ar   
    45   41   42 1    
    46   41   48 ar   
    47   44   45 1    
    48   44   46 ar   
    49   46   47 1    
    50   46   48 ar   
    51   48   49 1    
    52   49   50 2    
    53   49   51 1    
    54   51   53 1    
    55   51   52 1    
    56   51   54 1    
    57   54   56 am   BACKBONE|DICT|INTERRES
    58   54   55 1    
    59   56   57 2    
    60   56   58 1    
    61   58   59 1    
    62   58   60 1    
    63   60   62 1    
    64   60   61 1    
    65   60   63 1    
    66   63   64 ar   
    67   63   72 ar   
    68   64   65 1    
    69   64   66 ar   
    70   66   67 1    
    71   66   68 ar   
    72   68   70 ar   
    73   68   69 1    
    74   70   72 ar   
    75   70   71 1    
@<TRIPOS>SUBSTRUCTURE
     1 UNK         1 GROUP             0       ****    0 ROOT    
@<TRIPOS>MOLECULE
Cpd5-1000-MRC
72   75    1
SMALL
USER_CHARGES


@<TRIPOS>ATOM
      1 C1          6.6551    0.9122   -1.3492 C.3       1 UNK         0.0000 
      2 H2          7.1273    0.3417   -0.5436 H         1 UNK         0.0000 
      3 H3          6.4156    0.2399   -2.1736 H         1 UNK         0.0000 
      4 H4          7.3688    1.6629   -1.7014 H         1 UNK         0.0000 
      5 C5          5.4070    1.6188   -0.8293 C.3       1 UNK         0.0000 
      6 C6          4.6503    2.3534   -1.9317 C.3       1 UNK         0.0000 
      7 H7          4.4126    1.6884   -2.7626 H         1 UNK         0.0000 
      8 H8          3.7229    2.7766   -1.5341 H         1 UNK         0.0000 
      9 H9          5.2714    3.1736   -2.3036 H         1 UNK         0.0000 
     10 C10         5.7641    2.5740    0.3037 C.3       1 UNK         0.0000 
     11 H11         6.4363    3.3519   -0.0677 H         1 UNK         0.0000 
     12 H12         4.8630    3.0498    0.7004 H         1 UNK         0.0000 
     13 H13         6.2650    2.0360    1.1135 H         1 UNK         0.0000 
     14 O14         4.5224    0.6572   -0.1700 O.3       1 UNK         0.0000 
     15 C15         3.9580   -0.3441   -0.8630 C.2       1 UNK         0.0000 
     16 O16         4.1528   -0.6067   -2.0369 O.2       1 UNK         0.0000 
     17 N17         3.1103   -1.0477   -0.0578 N.am      1 UNK         0.0000 
     18 H18         3.0003   -0.7414    0.9001 H         1 UNK         0.0000 
     19 C19         2.3792   -2.1951   -0.5463 C.3       1 UNK         0.0000 
     20 C20         1.0086   -1.8390   -1.1488 C.2       1 UNK         0.0000 
     21 N21         0.5920   -0.5690   -0.9963 N.am      1 UNK         0.0000 
     22 H22         1.2138    0.1339   -0.6130 H         1 UNK         0.0000 
     23 O23         0.3354   -2.7104   -1.6998 O.2       1 UNK         0.0000 
     24 H24         2.9593   -2.6328   -1.3638 H         1 UNK         0.0000 
     25 C25         2.2082   -3.2602    0.5659 C.3       1 UNK         0.0000 
     26 H26         3.2042   -3.5158    0.9390 H         1 UNK         0.0000 
     27 H27         1.7739   -4.1499    0.1038 H         1 UNK         0.0000 
     28 C28         1.3157   -2.7533    1.6722 C.ar      1 UNK         0.0000 
     29 C29         1.8209   -2.0131    2.7471 C.ar      1 UNK         0.0000 
     30 C30         0.9673   -1.3161    3.6058 C.ar      1 UNK         0.0000 
     31 H31         1.3563   -0.6923    4.4044 H         1 UNK         0.0000 
     32 H32         2.8961   -1.9487    2.9001 H         1 UNK         0.0000 
     33 C33        -0.0726   -2.8957    1.5564 C.ar      1 UNK         0.0000 
     34 H34        -0.4768   -3.5128    0.7577 H         1 UNK         0.0000 
     35 C35        -0.9333   -2.2043    2.3995 C.ar      1 UNK         0.0000 
     36 H36        -2.0108   -2.2559    2.2706 H         1 UNK         0.0000 
     37 C37        -0.4017   -1.3686    3.3773 C.ar      1 UNK         0.0000 
     38 O38        -1.2640   -0.5205    4.0702 O.3       1 UNK         0.0000 
     39 C39        -1.6980    0.5115    3.2528 C.ar      1 UNK         0.0000 
     40 C40        -3.0658    0.7103    3.0790 C.ar      1 UNK         0.0000 
     41 C41        -3.5003    1.6718    2.1674 C.ar      1 UNK         0.0000 
     42 H42        -4.5612    1.8109    1.9826 H         1 UNK         0.0000 
     43 H43        -3.7682    0.0838    3.6185 H         1 UNK         0.0000 
     44 C44        -0.7663    1.3116    2.5888 C.ar      1 UNK         0.0000 
     45 H45         0.2947    1.1631    2.7575 H         1 UNK         0.0000 
     46 C46        -1.2076    2.2526    1.6715 C.ar      1 UNK         0.0000 
     47 H47        -0.4749    2.8357    1.1246 H         1 UNK         0.0000 
     48 C48        -2.5759    2.4173    1.4282 C.ar      1 UNK         0.0000 
     49 C49        -3.0536    3.2984    0.3209 C.2       1 UNK         0.0000 
     50 O50        -4.1285    3.8653    0.3596 O.2       1 UNK         0.0000 
     51 C51        -2.1742    3.3695   -0.9380 C.3       1 UNK         0.0000 
     52 H52        -2.7159    3.9467   -1.6896 H         1 UNK         0.0000 
     53 H53        -1.2233    3.8660   -0.7261 H         1 UNK         0.0000 
     54 N54        -1.8982    2.0264   -1.4138 N.am      1 UNK         0.0000 
     55 H55        -2.7057    1.4356   -1.6570 H         1 UNK         0.0000 
     56 C56        -0.6993    1.4298   -1.2701 C.2       1 UNK         0.0000 
     57 O57         0.3302    2.0239   -0.9525 O.2       1 UNK         0.0000 
     58 C58        -0.6896   -0.0987   -1.4840 C.3       1 UNK         0.0000 
     59 H59        -0.7651   -0.3037   -2.5609 H         1 UNK         0.0000 
     60 C60        -1.8582   -0.8115   -0.7493 C.3       1 UNK         0.0000 
     61 H61        -2.1618   -0.2195    0.1246 H         1 UNK         0.0000 
     62 H62        -1.4736   -1.7629   -0.3875 H         1 UNK         0.0000 
     63 C63        -3.0517   -1.0956   -1.6282 C.ar      1 UNK         0.0000 
     64 C64        -3.3580   -2.4026   -2.0148 C.ar      1 UNK         0.0000 
     65 H65        -2.7257   -3.2211   -1.6863 H         1 UNK         0.0000 
     66 C66        -4.4652   -2.6246   -2.8276 C.ar      1 UNK         0.0000 
     67 H67        -4.7237   -3.6313   -3.1399 H         1 UNK         0.0000 
     68 C68        -5.2322   -1.5362   -3.2357 C.ar      1 UNK         0.0000 
     69 H69        -6.1032   -1.6613   -3.8684 H         1 UNK         0.0000 
     70 C70        -4.8470   -0.2666   -2.8157 C.ar      1 UNK         0.0000 
     71 H71        -5.4087    0.6134   -3.1170 H         1 UNK         0.0000 
     72 N72        -3.7867   -0.0491   -2.0317 N.ar      1 UNK         0.0000 
@<TRIPOS>BOND
     1    1    5 1    
     2    1    2 1    
     3    1    3 1    
     4    1    4 1    
     5    5   14 1    
     6    5   10 1    
     7    5    6 1    
     8    6    8 1    
     9    6    7 1    
    10    6    9 1    
    11   10   12 1    
    12   10   13 1    
    13   10   11 1    
    14   14   15 1    
    15   15   17 am   BACKBONE|DICT|INTERRES
    16   15   16 2    
    17   17   18 1    
    18   17   19 1    
    19   19   24 1    
    20   19   25 1    
    21   19   20 1    
    22   20   21 am   BACKBONE|DICT|INTERRES
    23   20   23 2    
    24   21   22 1    
    25   21   58 1    
    26   25   26 1    
    27   25   28 1    
    28   25   27 1    
    29   28   29 ar   
    30   28   33 ar   
    31   29   32 1    
    32   29   30 ar   
    33   30   31 1    
    34   30   37 ar   
    35   33   35 ar   
    36   33   34 1    
    37   35   37 ar   
    38   35   36 1    
    39   37   38 1    
    40   38   39 1    
    41   39   40 ar   
    42   39   44 ar   
    43   40   43 1    
    44   40   41 ar   
    45   41   42 1    
    46   41   48 ar   
    47   44   45 1    
    48   44   46 ar   
    49   46   47 1    
    50   46   48 ar   
    51   48   49 1    
    52   49   50 2    
    53   49   51 1    
    54   51   53 1    
    55   51   52 1    
    56   51   54 1    
    57   54   56 am   BACKBONE|DICT|INTERRES
    58   54   55 1    
    59   56   58 1    
    60   56   57 2    
    61   58   59 1    
    62   58   60 1    
    63   60   62 1    
    64   60   61 1    
    65   60   63 1    
    66   63   64 ar   
    67   63   72 ar   
    68   64   65 1    
    69   64   66 ar   
    70   66   67 1    
    71   66   68 ar   
    72   68   70 ar   
    73   68   69 1    
    74   70   72 ar   
    75   70   71 1    
@<TRIPOS>SUBSTRUCTURE
     1 UNK         1 GROUP             0       ****    0 ROOT    
@<TRIPOS>MOLECULE
Cpd5-1500
72   75    1
SMALL
USER_CHARGES


@<TRIPOS>ATOM
      1 C1          6.6228    0.9428   -1.4061 C.3       1 UNK         0.0000 
      2 H2          6.3795    0.2609   -2.2214 H         1 UNK         0.0000 
      3 H3          7.3218    1.6992   -1.7751 H         1 UNK         0.0000 
      4 H4          7.1140    0.3848   -0.6031 H         1 UNK         0.0000 
      5 C5          5.3736    1.6379   -0.8736 C.3       1 UNK         0.0000 
      6 C6          4.5968    2.3620   -1.9691 C.3       1 UNK         0.0000 
      7 H7          4.3612    1.6944   -2.7984 H         1 UNK         0.0000 
      8 H8          3.6670    2.7718   -1.5632 H         1 UNK         0.0000 
      9 H9          5.2028    3.1914   -2.3456 H         1 UNK         0.0000 
     10 C10         5.7336    2.5997    0.2529 C.3       1 UNK         0.0000 
     11 H11         6.3950    3.3823   -0.1277 H         1 UNK         0.0000 
     12 H12         4.8322    3.0688    0.6571 H         1 UNK         0.0000 
     13 H13         6.2472    2.0686    1.0592 H         1 UNK         0.0000 
     14 O14         4.5074    0.6681   -0.2019 O.3       1 UNK         0.0000 
     15 C15         3.9416   -0.3379   -0.8867 C.2       1 UNK         0.0000 
     16 O16         4.1192   -0.5973   -2.0640 O.2       1 UNK         0.0000 
     17 N17         3.1144   -1.0509   -0.0689 N.am      1 UNK         0.0000 
     18 H18         3.0125   -0.7443    0.8899 H         1 UNK         0.0000 
     19 C19         2.3789   -2.1982   -0.5515 C.3       1 UNK         0.0000 
     20 C20         1.0065   -1.8406   -1.1492 C.2       1 UNK         0.0000 
     21 N21         0.5922   -0.5700   -0.9961 N.am      1 UNK         0.0000 
     22 H22         1.2119    0.1308   -0.6053 H         1 UNK         0.0000 
     23 O23         0.3301   -2.7112   -1.6974 O.2       1 UNK         0.0000 
     24 H24         2.9545   -2.6394   -1.3701 H         1 UNK         0.0000 
     25 C25         2.2104   -3.2598    0.5643 C.3       1 UNK         0.0000 
     26 H26         3.2072   -3.5139    0.9360 H         1 UNK         0.0000 
     27 H27         1.7763   -4.1512    0.1051 H         1 UNK         0.0000 
     28 C28         1.3187   -2.7520    1.6709 C.ar      1 UNK         0.0000 
     29 C29         1.8227   -2.0044    2.7413 C.ar      1 UNK         0.0000 
     30 C30         0.9677   -1.3087    3.5995 C.ar      1 UNK         0.0000 
     31 H31         1.3554   -0.6797    4.3947 H         1 UNK         0.0000 
     32 H32         2.8979   -1.9332    2.8915 H         1 UNK         0.0000 
     33 C33        -0.0691   -2.9035    1.5603 C.ar      1 UNK         0.0000 
     34 H34        -0.4718   -3.5266    0.7654 H         1 UNK         0.0000 
     35 C35        -0.9314   -2.2130    2.4029 C.ar      1 UNK         0.0000 
     36 H36        -2.0091   -2.2711    2.2769 H         1 UNK         0.0000 
     37 C37        -0.4017   -1.3694    3.3749 C.ar      1 UNK         0.0000 
     38 O38        -1.2666   -0.5225    4.0663 O.3       1 UNK         0.0000 
     39 C39        -1.6993    0.5107    3.2497 C.ar      1 UNK         0.0000 
     40 C40        -3.0671    0.7098    3.0748 C.ar      1 UNK         0.0000 
     41 C41        -3.5011    1.6725    2.1646 C.ar      1 UNK         0.0000 
     42 H42        -4.5619    1.8115    1.9786 H         1 UNK         0.0000 
     43 H43        -3.7697    0.0822    3.6127 H         1 UNK         0.0000 
     44 C44        -0.7672    1.3123    2.5877 C.ar      1 UNK         0.0000 
     45 H45         0.2939    1.1638    2.7554 H         1 UNK         0.0000 
     46 C46        -1.2083    2.2554    1.6725 C.ar      1 UNK         0.0000 
     47 H47        -0.4753    2.8394    1.1268 H         1 UNK         0.0000 
     48 C48        -2.5764    2.4199    1.4276 C.ar      1 UNK         0.0000 
     49 C49        -3.0530    3.3006    0.3193 C.2       1 UNK         0.0000 
     50 O50        -4.1289    3.8656    0.3558 O.2       1 UNK         0.0000 
     51 C51        -2.1711    3.3720   -0.9380 C.3       1 UNK         0.0000 
     52 H52        -2.7113    3.9499   -1.6903 H         1 UNK         0.0000 
     53 H53        -1.2205    3.8682   -0.7238 H         1 UNK         0.0000 
     54 N54        -1.8952    2.0291   -1.4140 N.am      1 UNK         0.0000 
     55 H55        -2.7010    1.4374   -1.6628 H         1 UNK         0.0000 
     56 C56        -0.6988    1.4294   -1.2627 C.2       1 UNK         0.0000 
     57 O57         0.3312    2.0208   -0.9408 O.2       1 UNK         0.0000 
     58 C58        -0.6945   -0.1002   -1.4697 C.3       1 UNK         0.0000 
     59 H59        -0.7855   -0.3116   -2.5440 H         1 UNK         0.0000 
     60 C60        -1.8542   -0.8056   -0.7134 C.3       1 UNK         0.0000 
     61 H61        -2.1445   -0.2059    0.1599 H         1 UNK         0.0000 
     62 H62        -1.4660   -1.7536   -0.3468 H         1 UNK         0.0000 
     63 C63        -3.0629   -1.0981   -1.5686 C.ar      1 UNK         0.0000 
     64 C64        -3.4145   -2.4136   -1.8805 C.ar      1 UNK         0.0000 
     65 H65        -2.8049   -3.2330   -1.5140 H         1 UNK         0.0000 
     66 C66        -4.5370   -2.6443   -2.6695 C.ar      1 UNK         0.0000 
     67 H67        -4.8300   -3.6579   -2.9241 H         1 UNK         0.0000 
     68 C68        -5.2739   -1.5561   -3.1297 C.ar      1 UNK         0.0000 
     69 H69        -6.1551   -1.6878   -3.7470 H         1 UNK         0.0000 
     70 C70        -4.8452   -0.2785   -2.7827 C.ar      1 UNK         0.0000 
     71 H71        -5.3826    0.6013   -3.1259 H         1 UNK         0.0000 
     72 N72        -3.7702   -0.0527   -2.0213 N.ar      1 UNK         0.0000 
@<TRIPOS>BOND
     1    1    5 1    
     2    1    4 1    
     3    1    2 1    
     4    1    3 1    
     5    5   14 1    
     6    5   10 1    
     7    5    6 1    
     8    6    8 1    
     9    6    7 1    
    10    6    9 1    
    11   10   12 1    
    12   10   13 1    
    13   10   11 1    
    14   14   15 1    
    15   15   17 am   BACKBONE|DICT|INTERRES
    16   15   16 2    
    17   17   18 1    
    18   17   19 1    
    19   19   24 1    
    20   19   25 1    
    21   19   20 1    
    22   20   21 am   BACKBONE|DICT|INTERRES
    23   20   23 2    
    24   21   22 1    
    25   21   58 1    
    26   25   26 1    
    27   25   28 1    
    28   25   27 1    
    29   28   29 ar   
    30   28   33 ar   
    31   29   32 1    
    32   29   30 ar   
    33   30   31 1    
    34   30   37 ar   
    35   33   35 ar   
    36   33   34 1    
    37   35   37 ar   
    38   35   36 1    
    39   37   38 1    
    40   38   39 1    
    41   39   40 ar   
    42   39   44 ar   
    43   40   43 1    
    44   40   41 ar   
    45   41   42 1    
    46   41   48 ar   
    47   44   45 1    
    48   44   46 ar   
    49   46   47 1    
    50   46   48 ar   
    51   48   49 1    
    52   49   50 2    
    53   49   51 1    
    54   51   53 1    
    55   51   52 1    
    56   51   54 1    
    57   54   56 am   BACKBONE|DICT|INTERRES
    58   54   55 1    
    59   56   57 2    
    60   56   58 1    
    61   58   59 1    
    62   58   60 1    
    63   60   62 1    
    64   60   61 1    
    65   60   63 1    
    66   63   64 ar   
    67   63   72 ar   
    68   64   65 1    
    69   64   66 ar   
    70   66   67 1    
    71   66   68 ar   
    72   68   70 ar   
    73   68   69 1    
    74   70   72 ar   
    75   70   71 1    
@<TRIPOS>SUBSTRUCTURE
     1 UNK         1 GROUP             0       ****    0 ROOT    
@<TRIPOS>MOLECULE
Cpd5-2000
72   75    1
SMALL
USER_CHARGES


@<TRIPOS>ATOM
      1 C1          6.6554    0.9126   -1.3468 C.3       1 UNK         0.0000 
      2 H2          7.1275    0.3427   -0.5408 H         1 UNK         0.0000 
      3 H3          6.4165    0.2400   -2.1711 H         1 UNK         0.0000 
      4 H4          7.3690    1.6635   -1.6989 H         1 UNK         0.0000 
      5 C5          5.4069    1.6191   -0.8277 C.3       1 UNK         0.0000 
      6 C6          4.6506    2.3533   -1.9308 C.3       1 UNK         0.0000 
      7 H7          5.2715    3.1738   -2.3022 H         1 UNK         0.0000 
      8 H8          4.4137    1.6881   -2.7618 H         1 UNK         0.0000 
      9 H9          3.7227    2.7760   -1.5337 H         1 UNK         0.0000 
     10 C10         5.7631    2.5746    0.3053 C.3       1 UNK         0.0000 
     11 H11         6.4353    3.3527   -0.0659 H         1 UNK         0.0000 
     12 H12         4.8615    3.0503    0.7011 H         1 UNK         0.0000 
     13 H13         6.2635    2.0369    1.1156 H         1 UNK         0.0000 
     14 O14         4.5221    0.6573   -0.1688 O.3       1 UNK         0.0000 
     15 C15         3.9581   -0.3440   -0.8621 C.2       1 UNK         0.0000 
     16 O16         4.1533   -0.6065   -2.0359 O.2       1 UNK         0.0000 
     17 N17         3.1100   -1.0475   -0.0574 N.am      1 UNK         0.0000 
     18 H18         2.9997   -0.7414    0.9007 H         1 UNK         0.0000 
     19 C19         2.3792   -2.1950   -0.5460 C.3       1 UNK         0.0000 
     20 C20         1.0085   -1.8389   -1.1486 C.2       1 UNK         0.0000 
     21 N21         0.5918   -0.5689   -0.9963 N.am      1 UNK         0.0000 
     22 H22         1.2138    0.1340   -0.6129 H         1 UNK         0.0000 
     23 O23         0.3354   -2.7104   -1.6996 O.2       1 UNK         0.0000 
     24 H24         2.9593   -2.6324   -1.3635 H         1 UNK         0.0000 
     25 C25         2.2081   -3.2603    0.5660 C.3       1 UNK         0.0000 
     26 H26         3.2041   -3.5158    0.9389 H         1 UNK         0.0000 
     27 H27         1.7738   -4.1498    0.1037 H         1 UNK         0.0000 
     28 C28         1.3157   -2.7534    1.6722 C.ar      1 UNK         0.0000 
     29 C29         1.8209   -2.0133    2.7471 C.ar      1 UNK         0.0000 
     30 C30         0.9674   -1.3162    3.6059 C.ar      1 UNK         0.0000 
     31 H31         1.3565   -0.6926    4.4045 H         1 UNK         0.0000 
     32 H32         2.8961   -1.9491    2.9001 H         1 UNK         0.0000 
     33 C33        -0.0726   -2.8958    1.5563 C.ar      1 UNK         0.0000 
     34 H34        -0.4769   -3.5128    0.7577 H         1 UNK         0.0000 
     35 C35        -0.9333   -2.2043    2.3995 C.ar      1 UNK         0.0000 
     36 H36        -2.0109   -2.2557    2.2706 H         1 UNK         0.0000 
     37 C37        -0.4016   -1.3687    3.3773 C.ar      1 UNK         0.0000 
     38 O38        -1.2639   -0.5205    4.0703 O.3       1 UNK         0.0000 
     39 C39        -1.6979    0.5114    3.2528 C.ar      1 UNK         0.0000 
     40 C40        -3.0657    0.7103    3.0789 C.ar      1 UNK         0.0000 
     41 C41        -3.5002    1.6717    2.1674 C.ar      1 UNK         0.0000 
     42 H42        -4.5611    1.8108    1.9825 H         1 UNK         0.0000 
     43 H43        -3.7680    0.0838    3.6184 H         1 UNK         0.0000 
     44 C44        -0.7663    1.3115    2.5886 C.ar      1 UNK         0.0000 
     45 H45         0.2948    1.1631    2.7574 H         1 UNK         0.0000 
     46 C46        -1.2075    2.2526    1.6714 C.ar      1 UNK         0.0000 
     47 H47        -0.4748    2.8356    1.1245 H         1 UNK         0.0000 
     48 C48        -2.5759    2.4173    1.4282 C.ar      1 UNK         0.0000 
     49 C49        -3.0537    3.2982    0.3209 C.2       1 UNK         0.0000 
     50 O50        -4.1286    3.8653    0.3596 O.2       1 UNK         0.0000 
     51 C51        -2.1741    3.3696   -0.9380 C.3       1 UNK         0.0000 
     52 H52        -2.7159    3.9469   -1.6895 H         1 UNK         0.0000 
     53 H53        -1.2233    3.8661   -0.7259 H         1 UNK         0.0000 
     54 N54        -1.8983    2.0266   -1.4139 N.am      1 UNK         0.0000 
     55 H55        -2.7058    1.4357   -1.6570 H         1 UNK         0.0000 
     56 C56        -0.6993    1.4299   -1.2703 C.2       1 UNK         0.0000 
     57 O57         0.3302    2.0241   -0.9527 O.2       1 UNK         0.0000 
     58 C58        -0.6896   -0.0985   -1.4841 C.3       1 UNK         0.0000 
     59 H59        -0.7650   -0.3036   -2.5611 H         1 UNK         0.0000 
     60 C60        -1.8583   -0.8113   -0.7495 C.3       1 UNK         0.0000 
     61 H61        -2.1619   -0.2192    0.1242 H         1 UNK         0.0000 
     62 H62        -1.4738   -1.7627   -0.3877 H         1 UNK         0.0000 
     63 C63        -3.0518   -1.0954   -1.6285 C.ar      1 UNK         0.0000 
     64 C64        -3.3581   -2.4025   -2.0151 C.ar      1 UNK         0.0000 
     65 H65        -2.7258   -3.2209   -1.6865 H         1 UNK         0.0000 
     66 C66        -4.4652   -2.6244   -2.8279 C.ar      1 UNK         0.0000 
     67 H67        -4.7237   -3.6312   -3.1401 H         1 UNK         0.0000 
     68 C68        -5.2321   -1.5361   -3.2360 C.ar      1 UNK         0.0000 
     69 H69        -6.1032   -1.6612   -3.8689 H         1 UNK         0.0000 
     70 C70        -4.8471   -0.2665   -2.8162 C.ar      1 UNK         0.0000 
     71 H71        -5.4088    0.6135   -3.1174 H         1 UNK         0.0000 
     72 N72        -3.7867   -0.0489   -2.0321 N.ar      1 UNK         0.0000 
@<TRIPOS>BOND
     1    1    5 1    
     2    1    2 1    
     3    1    3 1    
     4    1    4 1    
     5    5   14 1    
     6    5   10 1    
     7    5    6 1    
     8    6    9 1    
     9    6    7 1    
    10    6    8 1    
    11   10   12 1    
    12   10   13 1    
    13   10   11 1    
    14   14   15 1    
    15   15   17 am   BACKBONE|DICT|INTERRES
    16   15   16 2    
    17   17   18 1    
    18   17   19 1    
    19   19   24 1    
    20   19   25 1    
    21   19   20 1    
    22   20   21 am   BACKBONE|DICT|INTERRES
    23   20   23 2    
    24   21   22 1    
    25   21   58 1    
    26   25   26 1    
    27   25   28 1    
    28   25   27 1    
    29   28   29 ar   
    30   28   33 ar   
    31   29   32 1    
    32   29   30 ar   
    33   30   31 1    
    34   30   37 ar   
    35   33   35 ar   
    36   33   34 1    
    37   35   37 ar   
    38   35   36 1    
    39   37   38 1    
    40   38   39 1    
    41   39   40 ar   
    42   39   44 ar   
    43   40   43 1    
    44   40   41 ar   
    45   41   42 1    
    46   41   48 ar   
    47   44   45 1    
    48   44   46 ar   
    49   46   47 1    
    50   46   48 ar   
    51   48   49 1    
    52   49   50 2    
    53   49   51 1    
    54   51   53 1    
    55   51   52 1    
    56   51   54 1    
    57   54   56 am   BACKBONE|DICT|INTERRES
    58   54   55 1    
    59   56   58 1    
    60   56   57 2    
    61   58   59 1    
    62   58   60 1    
    63   60   62 1    
    64   60   61 1    
    65   60   63 1    
    66   63   64 ar   
    67   63   72 ar   
    68   64   65 1    
    69   64   66 ar   
    70   66   67 1    
    71   66   68 ar   
    72   68   70 ar   
    73   68   69 1    
    74   70   72 ar   
    75   70   71 1    
@<TRIPOS>SUBSTRUCTURE
     1 UNK         1 GROUP             0       ****    0 ROOT    
@<TRIPOS>MOLECULE
Cpd5-2500
72   75    1
SMALL
USER_CHARGES


@<TRIPOS>ATOM
      1 C1          6.1272   -0.1037    2.5334 C.3       1 UNK         0.0000 
      2 H2          5.9677   -1.1643    2.7304 H         1 UNK         0.0000 
      3 H3          7.0397    0.2157    3.0456 H         1 UNK         0.0000 
      4 H4          5.2883    0.4701    2.9398 H         1 UNK         0.0000 
      5 C5          6.2733    0.1711    1.0395 C.3       1 UNK         0.0000 
      6 C6          7.3620   -0.6802    0.3930 C.3       1 UNK         0.0000 
      7 H7          8.3326   -0.3903    0.8059 H         1 UNK         0.0000 
      8 H8          7.2021   -1.7420    0.5818 H         1 UNK         0.0000 
      9 H9          7.3833   -0.5049   -0.6869 H         1 UNK         0.0000 
     10 C10         6.5334    1.6524    0.7909 C.3       1 UNK         0.0000 
     11 H11         5.7306    2.2586    1.2195 H         1 UNK         0.0000 
     12 H12         7.4792    1.9437    1.2551 H         1 UNK         0.0000 
     13 H13         6.5926    1.8549   -0.2821 H         1 UNK         0.0000 
     14 O14         4.9939   -0.0467    0.3643 O.3       1 UNK         0.0000 
     15 C15         4.3985   -1.2502    0.3829 C.2       1 UNK         0.0000 
     16 O16         4.8591   -2.2604    0.8839 O.2       1 UNK         0.0000 
     17 N17         3.1731   -1.1555   -0.2221 N.am      1 UNK         0.0000 
     18 H18         3.0846   -0.3316   -0.8054 H         1 UNK         0.0000 
     19 C19         2.3875   -2.3181   -0.6200 C.3       1 UNK         0.0000 
     20 C20         1.0396   -1.8722   -1.2013 C.2       1 UNK         0.0000 
     21 N21         0.6111   -0.6272   -0.9086 N.am      1 UNK         0.0000 
     22 H22         1.1198   -0.0285   -0.2680 H         1 UNK         0.0000 
     23 O23         0.3821   -2.6549   -1.8845 O.2       1 UNK         0.0000 
     24 H24         2.8900   -2.8684   -1.4251 H         1 UNK         0.0000 
     25 C25         2.1158   -3.3257    0.5297 C.3       1 UNK         0.0000 
     26 H26         3.0747   -3.6740    0.9121 H         1 UNK         0.0000 
     27 H27         1.5988   -4.1721    0.0687 H         1 UNK         0.0000 
     28 C28         1.2637   -2.7330    1.6211 C.ar      1 UNK         0.0000 
     29 C29         1.8129   -1.8977    2.6007 C.ar      1 UNK         0.0000 
     30 C30         0.9929   -1.1903    3.4796 C.ar      1 UNK         0.0000 
     31 H31         1.4099   -0.5090    4.2148 H         1 UNK         0.0000 
     32 H32         2.8921   -1.7765    2.6552 H         1 UNK         0.0000 
     33 C33        -0.1211   -2.9260    1.6066 C.ar      1 UNK         0.0000 
     34 H34        -0.5551   -3.6064    0.8770 H         1 UNK         0.0000 
     35 C35        -0.9527   -2.2170    2.4683 C.ar      1 UNK         0.0000 
     36 H36        -2.0335   -2.3148    2.4183 H         1 UNK         0.0000 
     37 C37        -0.3876   -1.3152    3.3627 C.ar      1 UNK         0.0000 
     38 O38        -1.2331   -0.4731    4.0883 O.3       1 UNK         0.0000 
     39 C39        -1.6967    0.5541    3.2801 C.ar      1 UNK         0.0000 
     40 C40        -3.0640    0.6688    3.0384 C.ar      1 UNK         0.0000 
     41 C41        -3.5123    1.6148    2.1173 C.ar      1 UNK         0.0000 
     42 H42        -4.5687    1.6881    1.8770 H         1 UNK         0.0000 
     43 H43        -3.7511   -0.0112    3.5309 H         1 UNK         0.0000 
     44 C44        -0.7864    1.4265    2.6829 C.ar      1 UNK         0.0000 
     45 H45         0.2712    1.3442    2.9073 H         1 UNK         0.0000 
     46 C46        -1.2383    2.3490    1.7523 C.ar      1 UNK         0.0000 
     47 H47        -0.5171    2.9832    1.2496 H         1 UNK         0.0000 
     48 C48        -2.5990    2.4254    1.4348 C.ar      1 UNK         0.0000 
     49 C49        -3.0676    3.2722    0.2976 C.2       1 UNK         0.0000 
     50 O50        -4.1679    3.7889    0.2782 O.2       1 UNK         0.0000 
     51 C51        -2.1368    3.3524   -0.9228 C.3       1 UNK         0.0000 
     52 H52        -2.6494    3.9231   -1.6993 H         1 UNK         0.0000 
     53 H53        -1.1968    3.8514   -0.6737 H         1 UNK         0.0000 
     54 N54        -1.8400    2.0078   -1.3829 N.am      1 UNK         0.0000 
     55 H55        -2.6306    1.4228   -1.6913 H         1 UNK         0.0000 
     56 C56        -0.6619    1.3950   -1.1562 C.2       1 UNK         0.0000 
     57 O57         0.3498    1.9686   -0.7559 O.2       1 UNK         0.0000 
     58 C58        -0.6613   -0.1287   -1.3935 C.3       1 UNK         0.0000 
     59 H59        -0.7168   -0.3191   -2.4728 H         1 UNK         0.0000 
     60 C60        -1.8476   -0.8478   -0.6938 C.3       1 UNK         0.0000 
     61 H61        -2.1646   -0.2685    0.1848 H         1 UNK         0.0000 
     62 H62        -1.4718   -1.8044   -0.3344 H         1 UNK         0.0000 
     63 C63        -3.0297   -1.1193   -1.5924 C.ar      1 UNK         0.0000 
     64 C64        -3.4238   -2.4290   -1.8774 C.ar      1 UNK         0.0000 
     65 H65        -2.8679   -3.2617   -1.4593 H         1 UNK         0.0000 
     66 C66        -4.5219   -2.6399   -2.7054 C.ar      1 UNK         0.0000 
     67 H67        -4.8464   -3.6487   -2.9395 H         1 UNK         0.0000 
     68 C68        -5.1927   -1.5388   -3.2311 C.ar      1 UNK         0.0000 
     69 H69        -6.0524   -1.6549   -3.8809 H         1 UNK         0.0000 
     70 C70        -4.7255   -0.2690   -2.9061 C.ar      1 UNK         0.0000 
     71 H71        -5.2111    0.6203   -3.2985 H         1 UNK         0.0000 
     72 N72        -3.6740   -0.0625   -2.1073 N.ar      1 UNK         0.0000 
@<TRIPOS>BOND
     1    1    4 1    
     2    1    2 1    
     3    1    3 1    
     4    1    5 1    
     5    5    6 1    
     6    5   10 1    
     7    5   14 1    
     8    6    8 1    
     9    6    7 1    
    10    6    9 1    
    11   10   11 1    
    12   10   12 1    
    13   10   13 1    
    14   14   15 1    
    15   15   16 2    
    16   15   17 am   BACKBONE|DICT|INTERRES
    17   17   19 1    
    18   17   18 1    
    19   19   24 1    
    20   19   25 1    
    21   19   20 1    
    22   20   23 2    
    23   20   21 am   BACKBONE|DICT|INTERRES
    24   21   22 1    
    25   21   58 1    
    26   25   26 1    
    27   25   27 1    
    28   25   28 1    
    29   28   29 ar   
    30   28   33 ar   
    31   29   30 ar   
    32   29   32 1    
    33   30   31 1    
    34   30   37 ar   
    35   33   35 ar   
    36   33   34 1    
    37   35   36 1    
    38   35   37 ar   
    39   37   38 1    
    40   38   39 1    
    41   39   40 ar   
    42   39   44 ar   
    43   40   43 1    
    44   40   41 ar   
    45   41   42 1    
    46   41   48 ar   
    47   44   45 1    
    48   44   46 ar   
    49   46   48 ar   
    50   46   47 1    
    51   48   49 1    
    52   49   50 2    
    53   49   51 1    
    54   51   54 1    
    55   51   52 1    
    56   51   53 1    
    57   54   56 am   BACKBONE|DICT|INTERRES
    58   54   55 1    
    59   56   58 1    
    60   56   57 2    
    61   58   59 1    
    62   58   60 1    
    63   60   61 1    
    64   60   62 1    
    65   60   63 1    
    66   63   64 ar   
    67   63   72 ar   
    68   64   65 1    
    69   64   66 ar   
    70   66   67 1    
    71   66   68 ar   
    72   68   69 1    
    73   68   70 ar   
    74   70   72 ar   
    75   70   71 1    
@<TRIPOS>SUBSTRUCTURE
     1 UNK         1 GROUP             0       ****    0 ROOT    
@<TRIPOS>MOLECULE
Cpd5-3000
72   75    1
SMALL
USER_CHARGES


@<TRIPOS>ATOM
      1 C1          6.6752    0.8823   -1.3287 C.3       1 UNK         0.0000 
      2 H2          6.4409    0.1976   -2.1443 H         1 UNK         0.0000 
      3 H3          7.3960    1.6236   -1.6860 H         1 UNK         0.0000 
      4 H4          7.1364    0.3231   -0.5089 H         1 UNK         0.0000 
      5 C5          5.4249    1.6029   -0.8334 C.3       1 UNK         0.0000 
      6 C6          4.6882    2.3305   -1.9540 C.3       1 UNK         0.0000 
      7 H7          3.7547    2.7573   -1.5749 H         1 UNK         0.0000 
      8 H8          5.3165    3.1478   -2.3200 H         1 UNK         0.0000 
      9 H9          4.4642    1.6606   -2.7846 H         1 UNK         0.0000 
     10 C10         5.7728    2.5681    0.2939 C.3       1 UNK         0.0000 
     11 H11         6.2567    2.0355    1.1173 H         1 UNK         0.0000 
     12 H12         6.4567    3.3363   -0.0761 H         1 UNK         0.0000 
     13 H13         4.8696    3.0556    0.6712 H         1 UNK         0.0000 
     14 O14         4.5264    0.6529   -0.1758 O.3       1 UNK         0.0000 
     15 C15         3.9630   -0.3505   -0.8660 C.2       1 UNK         0.0000 
     16 O16         4.1620   -0.6194   -2.0378 O.2       1 UNK         0.0000 
     17 N17         3.1105   -1.0483   -0.0609 N.am      1 UNK         0.0000 
     18 H18         2.9990   -0.7384    0.8957 H         1 UNK         0.0000 
     19 C19         2.3779   -2.1956   -0.5475 C.3       1 UNK         0.0000 
     20 C20         1.0073   -1.8390   -1.1495 C.2       1 UNK         0.0000 
     21 N21         0.5923   -0.5680   -1.0000 N.am      1 UNK         0.0000 
     22 H22         1.2127    0.1344   -0.6133 H         1 UNK         0.0000 
     23 O23         0.3324   -2.7106   -1.6980 O.2       1 UNK         0.0000 
     24 H24         2.9575   -2.6340   -1.3648 H         1 UNK         0.0000 
     25 C25         2.2073   -3.2603    0.5652 C.3       1 UNK         0.0000 
     26 H26         3.2035   -3.5164    0.9372 H         1 UNK         0.0000 
     27 H27         1.7724   -4.1499    0.1035 H         1 UNK         0.0000 
     28 C28         1.3159   -2.7529    1.6723 C.ar      1 UNK         0.0000 
     29 C29         1.8212   -2.0100    2.7453 C.ar      1 UNK         0.0000 
     30 C30         0.9677   -1.3131    3.6041 C.ar      1 UNK         0.0000 
     31 H31         1.3567   -0.6875    4.4012 H         1 UNK         0.0000 
     32 H32         2.8964   -1.9431    2.8970 H         1 UNK         0.0000 
     33 C33        -0.0723   -2.8985    1.5592 C.ar      1 UNK         0.0000 
     34 H34        -0.4763   -3.5170    0.7616 H         1 UNK         0.0000 
     35 C35        -0.9331   -2.2075    2.4027 C.ar      1 UNK         0.0000 
     36 H36        -2.0109   -2.2618    2.2759 H         1 UNK         0.0000 
     37 C37        -0.4015   -1.3687    3.3779 C.ar      1 UNK         0.0000 
     38 O38        -1.2642   -0.5206    4.0704 O.3       1 UNK         0.0000 
     39 C39        -1.6978    0.5112    3.2525 C.ar      1 UNK         0.0000 
     40 C40        -3.0656    0.7077    3.0757 C.ar      1 UNK         0.0000 
     41 C41        -3.4997    1.6691    2.1641 C.ar      1 UNK         0.0000 
     42 H42        -4.5604    1.8063    1.9764 H         1 UNK         0.0000 
     43 H43        -3.7679    0.0794    3.6130 H         1 UNK         0.0000 
     44 C44        -0.7661    1.3132    2.5907 C.ar      1 UNK         0.0000 
     45 H45         0.2949    1.1659    2.7605 H         1 UNK         0.0000 
     46 C46        -1.2071    2.2547    1.6737 C.ar      1 UNK         0.0000 
     47 H47        -0.4741    2.8398    1.1292 H         1 UNK         0.0000 
     48 C48        -2.5752    2.4172    1.4277 C.ar      1 UNK         0.0000 
     49 C49        -3.0530    3.2981    0.3204 C.2       1 UNK         0.0000 
     50 O50        -4.1295    3.8622    0.3580 O.2       1 UNK         0.0000 
     51 C51        -2.1721    3.3716   -0.9373 C.3       1 UNK         0.0000 
     52 H52        -2.7128    3.9504   -1.6884 H         1 UNK         0.0000 
     53 H53        -1.2213    3.8674   -0.7232 H         1 UNK         0.0000 
     54 N54        -1.8966    2.0292   -1.4149 N.am      1 UNK         0.0000 
     55 H55        -2.7041    1.4386   -1.6604 H         1 UNK         0.0000 
     56 C56        -0.6989    1.4305   -1.2689 C.2       1 UNK         0.0000 
     57 O57         0.3310    2.0227   -0.9488 O.2       1 UNK         0.0000 
     58 C58        -0.6916   -0.0982   -1.4819 C.3       1 UNK         0.0000 
     59 H59        -0.7730   -0.3047   -2.5582 H         1 UNK         0.0000 
     60 C60        -1.8568   -0.8091   -0.7396 C.3       1 UNK         0.0000 
     61 H61        -2.1537   -0.2160    0.1360 H         1 UNK         0.0000 
     62 H62        -1.4717   -1.7608   -0.3791 H         1 UNK         0.0000 
     63 C63        -3.0581   -1.0929   -1.6085 C.ar      1 UNK         0.0000 
     64 C64        -3.3849   -2.4026   -1.9690 C.ar      1 UNK         0.0000 
     65 H65        -2.7623   -3.2240   -1.6295 H         1 UNK         0.0000 
     66 C66        -4.5003   -2.6243   -2.7705 C.ar      1 UNK         0.0000 
     67 H67        -4.7744   -3.6332   -3.0624 H         1 UNK         0.0000 
     68 C68        -5.2551   -1.5336   -3.1940 C.ar      1 UNK         0.0000 
     69 H69        -6.1320   -1.6586   -3.8189 H         1 UNK         0.0000 
     70 C70        -4.8502   -0.2618   -2.8000 C.ar      1 UNK         0.0000 
     71 H71        -5.4019    0.6202   -3.1137 H         1 UNK         0.0000 
     72 N72        -3.7820   -0.0446   -2.0267 N.ar      1 UNK         0.0000 
@<TRIPOS>BOND
     1    1    5 1    
     2    1    4 1    
     3    1    2 1    
     4    1    3 1    
     5    5   14 1    
     6    5   10 1    
     7    5    6 1    
     8    6    7 1    
     9    6    8 1    
    10    6    9 1    
    11   10   13 1    
    12   10   11 1    
    13   10   12 1    
    14   14   15 1    
    15   15   17 am   BACKBONE|DICT|INTERRES
    16   15   16 2    
    17   17   18 1    
    18   17   19 1    
    19   19   24 1    
    20   19   25 1    
    21   19   20 1    
    22   20   21 am   BACKBONE|DICT|INTERRES
    23   20   23 2    
    24   21   22 1    
    25   21   58 1    
    26   25   26 1    
    27   25   28 1    
    28   25   27 1    
    29   28   29 ar   
    30   28   33 ar   
    31   29   32 1    
    32   29   30 ar   
    33   30   31 1    
    34   30   37 ar   
    35   33   35 ar   
    36   33   34 1    
    37   35   37 ar   
    38   35   36 1    
    39   37   38 1    
    40   38   39 1    
    41   39   40 ar   
    42   39   44 ar   
    43   40   43 1    
    44   40   41 ar   
    45   41   42 1    
    46   41   48 ar   
    47   44   45 1    
    48   44   46 ar   
    49   46   47 1    
    50   46   48 ar   
    51   48   49 1    
    52   49   50 2    
    53   49   51 1    
    54   51   53 1    
    55   51   52 1    
    56   51   54 1    
    57   54   56 am   BACKBONE|DICT|INTERRES
    58   54   55 1    
    59   56   57 2    
    60   56   58 1    
    61   58   59 1    
    62   58   60 1    
    63   60   62 1    
    64   60   61 1    
    65   60   63 1    
    66   63   64 ar   
    67   63   72 ar   
    68   64   65 1    
    69   64   66 ar   
    70   66   67 1    
    71   66   68 ar   
    72   68   70 ar   
    73   68   69 1    
    74   70   72 ar   
    75   70   71 1    
@<TRIPOS>SUBSTRUCTURE
     1 UNK         1 GROUP             0       ****    0 ROOT    
@<TRIPOS>MOLECULE
Cpd5-3500
72   75    1
SMALL
USER_CHARGES


@<TRIPOS>ATOM
      1 C1          6.1272   -0.1030    2.5330 C.3       1 UNK         0.0000 
      2 H2          5.2884    0.4710    2.9392 H         1 UNK         0.0000 
      3 H3          5.9675   -1.1637    2.7301 H         1 UNK         0.0000 
      4 H4          7.0397    0.2163    3.0451 H         1 UNK         0.0000 
      5 C5          6.2733    0.1716    1.0390 C.3       1 UNK         0.0000 
      6 C6          7.3620   -0.6798    0.3927 C.3       1 UNK         0.0000 
      7 H7          8.3327   -0.3895    0.8053 H         1 UNK         0.0000 
      8 H8          7.2024   -1.7415    0.5819 H         1 UNK         0.0000 
      9 H9          7.3831   -0.5048   -0.6873 H         1 UNK         0.0000 
     10 C10         6.5334    1.6529    0.7903 C.3       1 UNK         0.0000 
     11 H11         7.4790    1.9445    1.2546 H         1 UNK         0.0000 
     12 H12         6.5926    1.8551   -0.2827 H         1 UNK         0.0000 
     13 H13         5.7304    2.2590    1.2186 H         1 UNK         0.0000 
     14 O14         4.9940   -0.0464    0.3639 O.3       1 UNK         0.0000 
     15 C15         4.3986   -1.2499    0.3827 C.2       1 UNK         0.0000 
     16 O16         4.8593   -2.2601    0.8836 O.2       1 UNK         0.0000 
     17 N17         3.1731   -1.1553   -0.2222 N.am      1 UNK         0.0000 
     18 H18         3.0844   -0.3315   -0.8055 H         1 UNK         0.0000 
     19 C19         2.3876   -2.3180   -0.6199 C.3       1 UNK         0.0000 
     20 C20         1.0397   -1.8722   -1.2013 C.2       1 UNK         0.0000 
     21 N21         0.6111   -0.6272   -0.9086 N.am      1 UNK         0.0000 
     22 H22         1.1197   -0.0285   -0.2681 H         1 UNK         0.0000 
     23 O23         0.3821   -2.6550   -1.8844 O.2       1 UNK         0.0000 
     24 H24         2.8901   -2.8683   -1.4251 H         1 UNK         0.0000 
     25 C25         2.1160   -3.3257    0.5298 C.3       1 UNK         0.0000 
     26 H26         3.0749   -3.6736    0.9122 H         1 UNK         0.0000 
     27 H27         1.5992   -4.1722    0.0688 H         1 UNK         0.0000 
     28 C28         1.2637   -2.7330    1.6211 C.ar      1 UNK         0.0000 
     29 C29         1.8129   -1.8977    2.6008 C.ar      1 UNK         0.0000 
     30 C30         0.9928   -1.1904    3.4796 C.ar      1 UNK         0.0000 
     31 H31         1.4098   -0.5091    4.2148 H         1 UNK         0.0000 
     32 H32         2.8920   -1.7764    2.6553 H         1 UNK         0.0000 
     33 C33        -0.1211   -2.9260    1.6065 C.ar      1 UNK         0.0000 
     34 H34        -0.5549   -3.6064    0.8768 H         1 UNK         0.0000 
     35 C35        -0.9526   -2.2170    2.4682 C.ar      1 UNK         0.0000 
     36 H36        -2.0335   -2.3150    2.4181 H         1 UNK         0.0000 
     37 C37        -0.3876   -1.3153    3.3627 C.ar      1 UNK         0.0000 
     38 O38        -1.2333   -0.4732    4.0881 O.3       1 UNK         0.0000 
     39 C39        -1.6967    0.5540    3.2801 C.ar      1 UNK         0.0000 
     40 C40        -3.0641    0.6690    3.0385 C.ar      1 UNK         0.0000 
     41 C41        -3.5123    1.6151    2.1175 C.ar      1 UNK         0.0000 
     42 H42        -4.5688    1.6885    1.8772 H         1 UNK         0.0000 
     43 H43        -3.7512   -0.0109    3.5309 H         1 UNK         0.0000 
     44 C44        -0.7864    1.4263    2.6828 C.ar      1 UNK         0.0000 
     45 H45         0.2713    1.3439    2.9070 H         1 UNK         0.0000 
     46 C46        -1.2383    2.3489    1.7522 C.ar      1 UNK         0.0000 
     47 H47        -0.5170    2.9830    1.2494 H         1 UNK         0.0000 
     48 C48        -2.5990    2.4255    1.4348 C.ar      1 UNK         0.0000 
     49 C49        -3.0676    3.2723    0.2977 C.2       1 UNK         0.0000 
     50 O50        -4.1678    3.7891    0.2783 O.2       1 UNK         0.0000 
     51 C51        -2.1369    3.3524   -0.9229 C.3       1 UNK         0.0000 
     52 H52        -2.6494    3.9230   -1.6994 H         1 UNK         0.0000 
     53 H53        -1.1967    3.8513   -0.6737 H         1 UNK         0.0000 
     54 N54        -1.8401    2.0077   -1.3827 N.am      1 UNK         0.0000 
     55 H55        -2.6308    1.4227   -1.6911 H         1 UNK         0.0000 
     56 C56        -0.6619    1.3949   -1.1563 C.2       1 UNK         0.0000 
     57 O57         0.3497    1.9685   -0.7562 O.2       1 UNK         0.0000 
     58 C58        -0.6612   -0.1288   -1.3935 C.3       1 UNK         0.0000 
     59 H59        -0.7168   -0.3192   -2.4729 H         1 UNK         0.0000 
     60 C60        -1.8476   -0.8480   -0.6939 C.3       1 UNK         0.0000 
     61 H61        -2.1647   -0.2688    0.1847 H         1 UNK         0.0000 
     62 H62        -1.4718   -1.8046   -0.3346 H         1 UNK         0.0000 
     63 C63        -3.0297   -1.1194   -1.5926 C.ar      1 UNK         0.0000 
     64 C64        -3.4237   -2.4289   -1.8781 C.ar      1 UNK         0.0000 
     65 H65        -2.8676   -3.2617   -1.4604 H         1 UNK         0.0000 
     66 C66        -4.5216   -2.6397   -2.7063 C.ar      1 UNK         0.0000 
     67 H67        -4.8460   -3.6486   -2.9408 H         1 UNK         0.0000 
     68 C68        -5.1926   -1.5386   -3.2316 C.ar      1 UNK         0.0000 
     69 H69        -6.0523   -1.6546   -3.8814 H         1 UNK         0.0000 
     70 C70        -4.7257   -0.2688   -2.9060 C.ar      1 UNK         0.0000 
     71 H71        -5.2113    0.6206   -3.2981 H         1 UNK         0.0000 
     72 N72        -3.6743   -0.0624   -2.1072 N.ar      1 UNK         0.0000 
@<TRIPOS>BOND
     1    1    4 1    
     2    1    5 1    
     3    1    2 1    
     4    1    3 1    
     5    5   14 1    
     6    5    6 1    
     7    5   10 1    
     8    6    7 1    
     9    6    9 1    
    10    6    8 1    
    11   10   11 1    
    12   10   12 1    
    13   10   13 1    
    14   14   15 1    
    15   15   17 am   BACKBONE|DICT|INTERRES
    16   15   16 2    
    17   17   18 1    
    18   17   19 1    
    19   19   24 1    
    20   19   20 1    
    21   19   25 1    
    22   20   21 am   BACKBONE|DICT|INTERRES
    23   20   23 2    
    24   21   22 1    
    25   21   58 1    
    26   25   26 1    
    27   25   27 1    
    28   25   28 1    
    29   28   29 ar   
    30   28   33 ar   
    31   29   32 1    
    32   29   30 ar   
    33   30   31 1    
    34   30   37 ar   
    35   33   34 1    
    36   33   35 ar   
    37   35   37 ar   
    38   35   36 1    
    39   37   38 1    
    40   38   39 1    
    41   39   44 ar   
    42   39   40 ar   
    43   40   41 ar   
    44   40   43 1    
    45   41   48 ar   
    46   41   42 1    
    47   44   45 1    
    48   44   46 ar   
    49   46   47 1    
    50   46   48 ar   
    51   48   49 1    
    52   49   50 2    
    53   49   51 1    
    54   51   53 1    
    55   51   52 1    
    56   51   54 1    
    57   54   55 1    
    58   54   56 am   BACKBONE|DICT|INTERRES
    59   56   57 2    
    60   56   58 1    
    61   58   59 1    
    62   58   60 1    
    63   60   63 1    
    64   60   61 1    
    65   60   62 1    
    66   63   72 ar   
    67   63   64 ar   
    68   64   66 ar   
    69   64   65 1    
    70   66   68 ar   
    71   66   67 1    
    72   68   69 1    
    73   68   70 ar   
    74   70   71 1    
    75   70   72 ar   
@<TRIPOS>SUBSTRUCTURE
     1 UNK         1 GROUP             0       ****    0 ROOT    
@<TRIPOS>MOLECULE
Cpd5-4000
72   75    1
SMALL
USER_CHARGES


@<TRIPOS>ATOM
      1 C1          6.6561    0.9112   -1.3480 C.3       1 UNK         0.0000 
      2 H2          7.3699    1.6617   -1.7003 H         1 UNK         0.0000 
      3 H3          7.1279    0.3412   -0.5419 H         1 UNK         0.0000 
      4 H4          6.4169    0.2385   -2.1722 H         1 UNK         0.0000 
      5 C5          5.4078    1.6183   -0.8290 C.3       1 UNK         0.0000 
      6 C6          4.6518    2.3525   -1.9323 C.3       1 UNK         0.0000 
      7 H7          5.2729    3.1728   -2.3037 H         1 UNK         0.0000 
      8 H8          4.4148    1.6872   -2.7632 H         1 UNK         0.0000 
      9 H9          3.7240    2.7755   -1.5353 H         1 UNK         0.0000 
     10 C10         5.7644    2.5738    0.3038 C.3       1 UNK         0.0000 
     11 H11         6.2647    2.0360    1.1140 H         1 UNK         0.0000 
     12 H12         6.4370    3.3514   -0.0676 H         1 UNK         0.0000 
     13 H13         4.8631    3.0500    0.6996 H         1 UNK         0.0000 
     14 O14         4.5226    0.6570   -0.1700 O.3       1 UNK         0.0000 
     15 C15         3.9584   -0.3444   -0.8628 C.2       1 UNK         0.0000 
     16 O16         4.1537   -0.6074   -2.0365 O.2       1 UNK         0.0000 
     17 N17         3.1104   -1.0477   -0.0578 N.am      1 UNK         0.0000 
     18 H18         3.0002   -0.7413    0.9001 H         1 UNK         0.0000 
     19 C19         2.3793   -2.1952   -0.5463 C.3       1 UNK         0.0000 
     20 C20         1.0087   -1.8390   -1.1489 C.2       1 UNK         0.0000 
     21 N21         0.5921   -0.5689   -0.9964 N.am      1 UNK         0.0000 
     22 H22         1.2140    0.1339   -0.6130 H         1 UNK         0.0000 
     23 O23         0.3355   -2.7104   -1.6998 O.2       1 UNK         0.0000 
     24 H24         2.9593   -2.6328   -1.3637 H         1 UNK         0.0000 
     25 C25         2.2081   -3.2602    0.5660 C.3       1 UNK         0.0000 
     26 H26         3.2041   -3.5158    0.9390 H         1 UNK         0.0000 
     27 H27         1.7739   -4.1499    0.1038 H         1 UNK         0.0000 
     28 C28         1.3157   -2.7533    1.6723 C.ar      1 UNK         0.0000 
     29 C29         1.8208   -2.0131    2.7471 C.ar      1 UNK         0.0000 
     30 C30         0.9672   -1.3161    3.6059 C.ar      1 UNK         0.0000 
     31 H31         1.3563   -0.6924    4.4044 H         1 UNK         0.0000 
     32 H32         2.8961   -1.9488    2.9002 H         1 UNK         0.0000 
     33 C33        -0.0726   -2.8957    1.5563 C.ar      1 UNK         0.0000 
     34 H34        -0.4768   -3.5129    0.7577 H         1 UNK         0.0000 
     35 C35        -0.9333   -2.2043    2.3994 C.ar      1 UNK         0.0000 
     36 H36        -2.0109   -2.2558    2.2705 H         1 UNK         0.0000 
     37 C37        -0.4017   -1.3687    3.3773 C.ar      1 UNK         0.0000 
     38 O38        -1.2640   -0.5205    4.0702 O.3       1 UNK         0.0000 
     39 C39        -1.6981    0.5115    3.2528 C.ar      1 UNK         0.0000 
     40 C40        -3.0659    0.7104    3.0790 C.ar      1 UNK         0.0000 
     41 C41        -3.5002    1.6719    2.1675 C.ar      1 UNK         0.0000 
     42 H42        -4.5612    1.8111    1.9826 H         1 UNK         0.0000 
     43 H43        -3.7681    0.0839    3.6185 H         1 UNK         0.0000 
     44 C44        -0.7663    1.3115    2.5887 C.ar      1 UNK         0.0000 
     45 H45         0.2948    1.1631    2.7575 H         1 UNK         0.0000 
     46 C46        -1.2076    2.2526    1.6715 C.ar      1 UNK         0.0000 
     47 H47        -0.4747    2.8358    1.1246 H         1 UNK         0.0000 
     48 C48        -2.5758    2.4174    1.4283 C.ar      1 UNK         0.0000 
     49 C49        -3.0536    3.2983    0.3209 C.2       1 UNK         0.0000 
     50 O50        -4.1285    3.8653    0.3597 O.2       1 UNK         0.0000 
     51 C51        -2.1743    3.3695   -0.9380 C.3       1 UNK         0.0000 
     52 H52        -2.7160    3.9465   -1.6896 H         1 UNK         0.0000 
     53 H53        -1.2233    3.8659   -0.7262 H         1 UNK         0.0000 
     54 N54        -1.8984    2.0264   -1.4137 N.am      1 UNK         0.0000 
     55 H55        -2.7058    1.4355   -1.6568 H         1 UNK         0.0000 
     56 C56        -0.6993    1.4298   -1.2701 C.2       1 UNK         0.0000 
     57 O57         0.3302    2.0240   -0.9526 O.2       1 UNK         0.0000 
     58 C58        -0.6895   -0.0987   -1.4839 C.3       1 UNK         0.0000 
     59 H59        -0.7651   -0.3039   -2.5608 H         1 UNK         0.0000 
     60 C60        -1.8580   -0.8116   -0.7491 C.3       1 UNK         0.0000 
     61 H61        -2.1614   -0.2196    0.1248 H         1 UNK         0.0000 
     62 H62        -1.4734   -1.7630   -0.3874 H         1 UNK         0.0000 
     63 C63        -3.0516   -1.0957   -1.6277 C.ar      1 UNK         0.0000 
     64 C64        -3.3580   -2.4028   -2.0142 C.ar      1 UNK         0.0000 
     65 H65        -2.7256   -3.2212   -1.6858 H         1 UNK         0.0000 
     66 C66        -4.4653   -2.6248   -2.8268 C.ar      1 UNK         0.0000 
     67 H67        -4.7237   -3.6317   -3.1389 H         1 UNK         0.0000 
     68 C68        -5.2324   -1.5366   -3.2347 C.ar      1 UNK         0.0000 
     69 H69        -6.1036   -1.6617   -3.8673 H         1 UNK         0.0000 
     70 C70        -4.8473   -0.2669   -2.8149 C.ar      1 UNK         0.0000 
     71 H71        -5.4092    0.6131   -3.1160 H         1 UNK         0.0000 
     72 N72        -3.7868   -0.0492   -2.0311 N.ar      1 UNK         0.0000 
@<TRIPOS>BOND
     1    1    2 1    
     2    1    4 1    
     3    1    3 1    
     4    1    5 1    
     5    5    6 1    
     6    5   10 1    
     7    5   14 1    
     8    6    7 1    
     9    6    8 1    
    10    6    9 1    
    11   10   12 1    
    12   10   11 1    
    13   10   13 1    
    14   14   15 1    
    15   15   16 2    
    16   15   17 am   BACKBONE|DICT|INTERRES
    17   17   19 1    
    18   17   18 1    
    19   19   20 1    
    20   19   24 1    
    21   19   25 1    
    22   20   21 am   BACKBONE|DICT|INTERRES
    23   20   23 2    
    24   21   58 1    
    25   21   22 1    
    26   25   27 1    
    27   25   26 1    
    28   25   28 1    
    29   28   33 ar   
    30   28   29 ar   
    31   29   30 ar   
    32   29   32 1    
    33   30   37 ar   
    34   30   31 1    
    35   33   34 1    
    36   33   35 ar   
    37   35   36 1    
    38   35   37 ar   
    39   37   38 1    
    40   38   39 1    
    41   39   40 ar   
    42   39   44 ar   
    43   40   41 ar   
    44   40   43 1    
    45   41   42 1    
    46   41   48 ar   
    47   44   46 ar   
    48   44   45 1    
    49   46   48 ar   
    50   46   47 1    
    51   48   49 1    
    52   49   50 2    
    53   49   51 1    
    54   51   54 1    
    55   51   52 1    
    56   51   53 1    
    57   54   55 1    
    58   54   56 am   BACKBONE|DICT|INTERRES
    59   56   57 2    
    60   56   58 1    
    61   58   59 1    
    62   58   60 1    
    63   60   63 1    
    64   60   61 1    
    65   60   62 1    
    66   63   64 ar   
    67   63   72 ar   
    68   64   66 ar   
    69   64   65 1    
    70   66   67 1    
    71   66   68 ar   
    72   68   69 1    
    73   68   70 ar   
    74   70   71 1    
    75   70   72 ar   
@<TRIPOS>SUBSTRUCTURE
     1 UNK         1 GROUP             0       ****    0 ROOT    
@<TRIPOS>MOLECULE
Cpd5-4500-MEC
72   75    1
SMALL
USER_CHARGES


@<TRIPOS>ATOM
      1 C1          6.6634    0.9010   -1.3342 C.3       1 UNK         0.0000 
      2 H2          7.1309    0.3361   -0.5219 H         1 UNK         0.0000 
      3 H3          6.4280    0.2230   -2.1549 H         1 UNK         0.0000 
      4 H4          7.3795    1.6487   -1.6881 H         1 UNK         0.0000 
      5 C5          5.4131    1.6126   -0.8258 C.3       1 UNK         0.0000 
      6 C6          4.6653    2.3436   -1.9368 C.3       1 UNK         0.0000 
      7 H7          5.2901    3.1615   -2.3073 H         1 UNK         0.0000 
      8 H8          4.4323    1.6757   -2.7666 H         1 UNK         0.0000 
      9 H9          3.7358    2.7698   -1.5472 H         1 UNK         0.0000 
     10 C10         5.7646    2.5723    0.3051 C.3       1 UNK         0.0000 
     11 H11         6.4415    3.3465   -0.0654 H         1 UNK         0.0000 
     12 H12         4.8618    3.0523    0.6927 H         1 UNK         0.0000 
     13 H13         6.2581    2.0370    1.1212 H         1 UNK         0.0000 
     14 O14         4.5223    0.6557   -0.1682 O.3       1 UNK         0.0000 
     15 C15         3.9587   -0.3457   -0.8616 C.2       1 UNK         0.0000 
     16 O16         4.1536   -0.6080   -2.0355 O.2       1 UNK         0.0000 
     17 N17         3.1100   -1.0491   -0.0570 N.am      1 UNK         0.0000 
     18 H18         3.0000   -0.7435    0.9012 H         1 UNK         0.0000 
     19 C19         2.3786   -2.1961   -0.5461 C.3       1 UNK         0.0000 
     20 C20         1.0088   -1.8396   -1.1504 C.2       1 UNK         0.0000 
     21 N21         0.5916   -0.5697   -0.9966 N.am      1 UNK         0.0000 
     22 H22         1.2126    0.1315   -0.6088 H         1 UNK         0.0000 
     23 O23         0.3373   -2.7101   -1.7047 O.2       1 UNK         0.0000 
     24 H24         2.9594   -2.6339   -1.3629 H         1 UNK         0.0000 
     25 C25         2.2065   -3.2611    0.5659 C.3       1 UNK         0.0000 
     26 H26         3.2023   -3.5176    0.9387 H         1 UNK         0.0000 
     27 H27         1.7715   -4.1503    0.1036 H         1 UNK         0.0000 
     28 C28         1.3150   -2.7535    1.6725 C.ar      1 UNK         0.0000 
     29 C29         1.8212   -2.0141    2.7476 C.ar      1 UNK         0.0000 
     30 C30         0.9680   -1.3164    3.6064 C.ar      1 UNK         0.0000 
     31 H31         1.3574   -0.6930    4.4050 H         1 UNK         0.0000 
     32 H32         2.8966   -1.9501    2.9002 H         1 UNK         0.0000 
     33 C33        -0.0734   -2.8951    1.5569 C.ar      1 UNK         0.0000 
     34 H34        -0.4781   -3.5120    0.7585 H         1 UNK         0.0000 
     35 C35        -0.9336   -2.2035    2.4005 C.ar      1 UNK         0.0000 
     36 H36        -2.0112   -2.2545    2.2720 H         1 UNK         0.0000 
     37 C37        -0.4010   -1.3679    3.3780 C.ar      1 UNK         0.0000 
     38 O38        -1.2625   -0.5189    4.0711 O.3       1 UNK         0.0000 
     39 C39        -1.6972    0.5123    3.2528 C.ar      1 UNK         0.0000 
     40 C40        -3.0652    0.7098    3.0785 C.ar      1 UNK         0.0000 
     41 C41        -3.5005    1.6708    2.1669 C.ar      1 UNK         0.0000 
     42 H42        -4.5614    1.8089    1.9818 H         1 UNK         0.0000 
     43 H43        -3.7670    0.0826    3.6179 H         1 UNK         0.0000 
     44 C44        -0.7660    1.3129    2.5886 C.ar      1 UNK         0.0000 
     45 H45         0.2953    1.1654    2.7570 H         1 UNK         0.0000 
     46 C46        -1.2081    2.2539    1.6717 C.ar      1 UNK         0.0000 
     47 H47        -0.4759    2.8374    1.1245 H         1 UNK         0.0000 
     48 C48        -2.5765    2.4172    1.4280 C.ar      1 UNK         0.0000 
     49 C49        -3.0546    3.2978    0.3205 C.2       1 UNK         0.0000 
     50 O50        -4.1299    3.8639    0.3586 O.2       1 UNK         0.0000 
     51 C51        -2.1740    3.3698   -0.9374 C.3       1 UNK         0.0000 
     52 H52        -2.7149    3.9474   -1.6892 H         1 UNK         0.0000 
     53 H53        -1.2234    3.8662   -0.7239 H         1 UNK         0.0000 
     54 N54        -1.8975    2.0270   -1.4138 N.am      1 UNK         0.0000 
     55 H55        -2.7039    1.4364   -1.6617 H         1 UNK         0.0000 
     56 C56        -0.6987    1.4300   -1.2698 C.2       1 UNK         0.0000 
     57 O57         0.3303    2.0236   -0.9491 O.2       1 UNK         0.0000 
     58 C58        -0.6897   -0.0986   -1.4838 C.3       1 UNK         0.0000 
     59 H59        -0.7659   -0.3040   -2.5607 H         1 UNK         0.0000 
     60 C60        -1.8582   -0.8104   -0.7482 C.3       1 UNK         0.0000 
     61 H61        -2.1606   -0.2172    0.1253 H         1 UNK         0.0000 
     62 H62        -1.4741   -1.7616   -0.3852 H         1 UNK         0.0000 
     63 C63        -3.0536   -1.0948   -1.6246 C.ar      1 UNK         0.0000 
     64 C64        -3.3727   -2.4043   -1.9926 C.ar      1 UNK         0.0000 
     65 H65        -2.7488   -3.2243   -1.6521 H         1 UNK         0.0000 
     66 C66        -4.4815   -2.6271   -2.8029 C.ar      1 UNK         0.0000 
     67 H67        -4.7496   -3.6357   -3.1010 H         1 UNK         0.0000 
     68 C68        -5.2375   -1.5373   -3.2272 C.ar      1 UNK         0.0000 
     69 H69        -6.1091   -1.6629   -3.8590 H         1 UNK         0.0000 
     70 C70        -4.8403   -0.2657   -2.8251 C.ar      1 UNK         0.0000 
     71 H71        -5.3932    0.6154   -3.1392 H         1 UNK         0.0000 
     72 N72        -3.7782   -0.0473   -2.0435 N.ar      1 UNK         0.0000 
@<TRIPOS>BOND
     1    1    4 1    
     2    1    3 1    
     3    1    2 1    
     4    1    5 1    
     5    5    6 1    
     6    5   10 1    
     7    5   14 1    
     8    6    7 1    
     9    6    8 1    
    10    6    9 1    
    11   10   11 1    
    12   10   12 1    
    13   10   13 1    
    14   14   15 1    
    15   15   16 2    
    16   15   17 am   BACKBONE|DICT|INTERRES
    17   17   19 1    
    18   17   18 1    
    19   19   20 1    
    20   19   24 1    
    21   19   25 1    
    22   20   21 am   BACKBONE|DICT|INTERRES
    23   20   23 2    
    24   21   58 1    
    25   21   22 1    
    26   25   27 1    
    27   25   26 1    
    28   25   28 1    
    29   28   33 ar   
    30   28   29 ar   
    31   29   30 ar   
    32   29   32 1    
    33   30   37 ar   
    34   30   31 1    
    35   33   34 1    
    36   33   35 ar   
    37   35   36 1    
    38   35   37 ar   
    39   37   38 1    
    40   38   39 1    
    41   39   40 ar   
    42   39   44 ar   
    43   40   41 ar   
    44   40   43 1    
    45   41   42 1    
    46   41   48 ar   
    47   44   46 ar   
    48   44   45 1    
    49   46   48 ar   
    50   46   47 1    
    51   48   49 1    
    52   49   50 2    
    53   49   51 1    
    54   51   54 1    
    55   51   52 1    
    56   51   53 1    
    57   54   55 1    
    58   54   56 am   BACKBONE|DICT|INTERRES
    59   56   58 1    
    60   56   57 2    
    61   58   59 1    
    62   58   60 1    
    63   60   63 1    
    64   60   61 1    
    65   60   62 1    
    66   63   64 ar   
    67   63   72 ar   
    68   64   66 ar   
    69   64   65 1    
    70   66   67 1    
    71   66   68 ar   
    72   68   69 1    
    73   68   70 ar   
    74   70   71 1    
    75   70   72 ar   
@<TRIPOS>SUBSTRUCTURE
     1 UNK         1 GROUP             0       ****    0 ROOT    
@<TRIPOS>MOLECULE
Cpd5-5000
72   75    1
SMALL
USER_CHARGES


@<TRIPOS>ATOM
      1 C1          6.1270   -0.1035    2.5337 C.3       1 UNK         0.0000 
      2 H2          7.0394    0.2156    3.0458 H         1 UNK         0.0000 
      3 H3          5.2881    0.4702    2.9400 H         1 UNK         0.0000 
      4 H4          5.9673   -1.1642    2.7306 H         1 UNK         0.0000 
      5 C5          6.2732    0.1712    1.0397 C.3       1 UNK         0.0000 
      6 C6          7.3618   -0.6800    0.3932 C.3       1 UNK         0.0000 
      7 H7          7.3830   -0.5049   -0.6866 H         1 UNK         0.0000 
      8 H8          8.3325   -0.3898    0.8060 H         1 UNK         0.0000 
      9 H9          7.2022   -1.7418    0.5823 H         1 UNK         0.0000 
     10 C10         6.5332    1.6526    0.7912 C.3       1 UNK         0.0000 
     11 H11         5.7303    2.2586    1.2196 H         1 UNK         0.0000 
     12 H12         7.4789    1.9440    1.2556 H         1 UNK         0.0000 
     13 H13         6.5926    1.8550   -0.2817 H         1 UNK         0.0000 
     14 O14         4.9937   -0.0466    0.3644 O.3       1 UNK         0.0000 
     15 C15         4.3984   -1.2501    0.3829 C.2       1 UNK         0.0000 
     16 O16         4.8591   -2.2603    0.8839 O.2       1 UNK         0.0000 
     17 N17         3.1731   -1.1555   -0.2220 N.am      1 UNK         0.0000 
     18 H18         3.0845   -0.3316   -0.8055 H         1 UNK         0.0000 
     19 C19         2.3875   -2.3181   -0.6199 C.3       1 UNK         0.0000 
     20 C20         1.0396   -1.8722   -1.2012 C.2       1 UNK         0.0000 
     21 N21         0.6111   -0.6272   -0.9086 N.am      1 UNK         0.0000 
     22 H22         1.1197   -0.0286   -0.2678 H         1 UNK         0.0000 
     23 O23         0.3820   -2.6549   -1.8844 O.2       1 UNK         0.0000 
     24 H24         2.8900   -2.8683   -1.4251 H         1 UNK         0.0000 
     25 C25         2.1158   -3.3257    0.5297 C.3       1 UNK         0.0000 
     26 H26         3.0747   -3.6739    0.9121 H         1 UNK         0.0000 
     27 H27         1.5989   -4.1722    0.0687 H         1 UNK         0.0000 
     28 C28         1.2638   -2.7330    1.6211 C.ar      1 UNK         0.0000 
     29 C29         1.8130   -1.8978    2.6008 C.ar      1 UNK         0.0000 
     30 C30         0.9929   -1.1904    3.4797 C.ar      1 UNK         0.0000 
     31 H31         1.4098   -0.5092    4.2149 H         1 UNK         0.0000 
     32 H32         2.8920   -1.7765    2.6553 H         1 UNK         0.0000 
     33 C33        -0.1211   -2.9260    1.6066 C.ar      1 UNK         0.0000 
     34 H34        -0.5549   -3.6064    0.8769 H         1 UNK         0.0000 
     35 C35        -0.9527   -2.2170    2.4682 C.ar      1 UNK         0.0000 
     36 H36        -2.0336   -2.3148    2.4181 H         1 UNK         0.0000 
     37 C37        -0.3876   -1.3153    3.3628 C.ar      1 UNK         0.0000 
     38 O38        -1.2331   -0.4731    4.0883 O.3       1 UNK         0.0000 
     39 C39        -1.6966    0.5540    3.2801 C.ar      1 UNK         0.0000 
     40 C40        -3.0641    0.6688    3.0384 C.ar      1 UNK         0.0000 
     41 C41        -3.5123    1.6149    2.1174 C.ar      1 UNK         0.0000 
     42 H42        -4.5687    1.6882    1.8771 H         1 UNK         0.0000 
     43 H43        -3.7512   -0.0110    3.5310 H         1 UNK         0.0000 
     44 C44        -0.7864    1.4264    2.6828 C.ar      1 UNK         0.0000 
     45 H45         0.2712    1.3439    2.9071 H         1 UNK         0.0000 
     46 C46        -1.2383    2.3490    1.7522 C.ar      1 UNK         0.0000 
     47 H47        -0.5171    2.9831    1.2494 H         1 UNK         0.0000 
     48 C48        -2.5990    2.4254    1.4348 C.ar      1 UNK         0.0000 
     49 C49        -3.0676    3.2722    0.2976 C.2       1 UNK         0.0000 
     50 O50        -4.1679    3.7890    0.2783 O.2       1 UNK         0.0000 
     51 C51        -2.1368    3.3524   -0.9228 C.3       1 UNK         0.0000 
     52 H52        -2.6493    3.9232   -1.6993 H         1 UNK         0.0000 
     53 H53        -1.1968    3.8515   -0.6735 H         1 UNK         0.0000 
     54 N54        -1.8400    2.0078   -1.3828 N.am      1 UNK         0.0000 
     55 H55        -2.6307    1.4228   -1.6912 H         1 UNK         0.0000 
     56 C56        -0.6618    1.3950   -1.1564 C.2       1 UNK         0.0000 
     57 O57         0.3498    1.9686   -0.7561 O.2       1 UNK         0.0000 
     58 C58        -0.6612   -0.1287   -1.3935 C.3       1 UNK         0.0000 
     59 H59        -0.7169   -0.3191   -2.4729 H         1 UNK         0.0000 
     60 C60        -1.8477   -0.8478   -0.6939 C.3       1 UNK         0.0000 
     61 H61        -2.1647   -0.2685    0.1848 H         1 UNK         0.0000 
     62 H62        -1.4719   -1.8045   -0.3345 H         1 UNK         0.0000 
     63 C63        -3.0298   -1.1192   -1.5925 C.ar      1 UNK         0.0000 
     64 C64        -3.4235   -2.4288   -1.8781 C.ar      1 UNK         0.0000 
     65 H65        -2.8674   -3.2615   -1.4604 H         1 UNK         0.0000 
     66 C66        -4.5216   -2.6396   -2.7062 C.ar      1 UNK         0.0000 
     67 H67        -4.8458   -3.6485   -2.9407 H         1 UNK         0.0000 
     68 C68        -5.1927   -1.5386   -3.2314 C.ar      1 UNK         0.0000 
     69 H69        -6.0525   -1.6546   -3.8812 H         1 UNK         0.0000 
     70 C70        -4.7258   -0.2687   -2.9058 C.ar      1 UNK         0.0000 
     71 H71        -5.2116    0.6206   -3.2979 H         1 UNK         0.0000 
     72 N72        -3.6745   -0.0622   -2.1070 N.ar      1 UNK         0.0000 
@<TRIPOS>BOND
     1    1    3 1    
     2    1    4 1    
     3    1    2 1    
     4    1    5 1    
     5    5    6 1    
     6    5   10 1    
     7    5   14 1    
     8    6    9 1    
     9    6    7 1    
    10    6    8 1    
    11   10   11 1    
    12   10   12 1    
    13   10   13 1    
    14   14   15 1    
    15   15   16 2    
    16   15   17 am   BACKBONE|DICT|INTERRES
    17   17   19 1    
    18   17   18 1    
    19   19   24 1    
    20   19   25 1    
    21   19   20 1    
    22   20   23 2    
    23   20   21 am   BACKBONE|DICT|INTERRES
    24   21   22 1    
    25   21   58 1    
    26   25   26 1    
    27   25   27 1    
    28   25   28 1    
    29   28   29 ar   
    30   28   33 ar   
    31   29   30 ar   
    32   29   32 1    
    33   30   31 1    
    34   30   37 ar   
    35   33   35 ar   
    36   33   34 1    
    37   35   36 1    
    38   35   37 ar   
    39   37   38 1    
    40   38   39 1    
    41   39   40 ar   
    42   39   44 ar   
    43   40   43 1    
    44   40   41 ar   
    45   41   42 1    
    46   41   48 ar   
    47   44   45 1    
    48   44   46 ar   
    49   46   48 ar   
    50   46   47 1    
    51   48   49 1    
    52   49   50 2    
    53   49   51 1    
    54   51   54 1    
    55   51   52 1    
    56   51   53 1    
    57   54   56 am   BACKBONE|DICT|INTERRES
    58   54   55 1    
    59   56   58 1    
    60   56   57 2    
    61   58   59 1    
    62   58   60 1    
    63   60   61 1    
    64   60   62 1    
    65   60   63 1    
    66   63   64 ar   
    67   63   72 ar   
    68   64   65 1    
    69   64   66 ar   
    70   66   67 1    
    71   66   68 ar   
    72   68   69 1    
    73   68   70 ar   
    74   70   72 ar   
    75   70   71 1    
@<TRIPOS>SUBSTRUCTURE
     1 UNK         1 GROUP             0       ****    0 ROOT    
