@<TRIPOS>MOLECULE
Cpd5-500
92   93    1
SMALL
USER_CHARGES


@<TRIPOS>ATOM
      1 C1          6.8237   -1.7136   -3.6341 C.3       1 UNK         0.0000 
      2 H2          7.4605   -1.7747   -4.5205 H         1 UNK         0.0000 
      3 H3          6.9315   -0.7200   -3.1900 H         1 UNK         0.0000 
      4 H4          7.1624   -2.4605   -2.9097 H         1 UNK         0.0000 
      5 C5          5.3734   -1.9688   -4.0267 C.3       1 UNK         0.0000 
      6 C6          5.2108   -3.3935   -4.5492 C.3       1 UNK         0.0000 
      7 H7          4.1882   -3.5875   -4.8722 H         1 UNK         0.0000 
      8 H8          5.8845   -3.5368   -5.3991 H         1 UNK         0.0000 
      9 H9          5.4868   -4.1145   -3.7731 H         1 UNK         0.0000 
     10 C10         4.8971   -0.9232   -5.0299 C.3       1 UNK         0.0000 
     11 H11         5.5285   -0.9704   -5.9218 H         1 UNK         0.0000 
     12 H12         3.8615   -1.0988   -5.3239 H         1 UNK         0.0000 
     13 H13         4.9855    0.0787   -4.5991 H         1 UNK         0.0000 
     14 O14         4.6610   -1.8018   -2.7583 O.3       1 UNK         0.0000 
     15 C15         3.3232   -1.9407   -2.6903 C.2       1 UNK         0.0000 
     16 O16         2.6029   -2.2930   -3.6164 O.2       1 UNK         0.0000 
     17 N17         2.8808   -1.6306   -1.4460 N.am      1 UNK         0.0000 
     18 H18         3.5835   -1.4984   -0.7072 H         1 UNK         0.0000 
     19 C19         1.5172   -1.9541   -1.0746 C.3       1 UNK         0.0000 
     20 C20         1.0289   -0.8453   -0.1356 C.2       1 UNK         0.0000 
     21 N21         0.1749    0.0495   -0.6865 N.am      1 UNK         0.0000 
     22 H22        -0.0139   -0.0175   -1.6919 H         1 UNK         0.0000 
     23 O23         1.4408   -0.7776    1.0204 O.2       1 UNK         0.0000 
     24 H24         0.9243   -1.9391   -1.9939 H         1 UNK         0.0000 
     25 C25         1.4096   -3.3470   -0.4250 C.3       1 UNK         0.0000 
     26 H26         1.9392   -3.3315    0.5326 H         1 UNK         0.0000 
     27 H27         1.9142   -4.0565   -1.0900 H         1 UNK         0.0000 
     28 C28        -0.0420   -3.7091   -0.2521 C.ar      1 UNK         0.0000 
     29 C29        -0.6927   -3.5711    0.9761 C.ar      1 UNK         0.0000 
     30 C30        -2.0825   -3.6684    1.0632 C.ar      1 UNK         0.0000 
     31 H31        -2.5971   -3.5097    2.0054 H         1 UNK         0.0000 
     32 H32        -0.1151   -3.3326    1.8650 H         1 UNK         0.0000 
     33 C33        -0.7988   -4.0490   -1.3804 C.ar      1 UNK         0.0000 
     34 H34        -0.2983   -4.2047   -2.3341 H         1 UNK         0.0000 
     35 C35        -2.1847   -4.1328   -1.3127 C.ar      1 UNK         0.0000 
     36 H36        -2.7803   -4.3231   -2.2005 H         1 UNK         0.0000 
     37 C37        -2.8158   -3.8856   -0.0967 C.ar      1 UNK         0.0000 
     38 O38        -4.2066   -3.7163   -0.0844 O.3       1 UNK         0.0000 
     39 C39        -4.4758   -2.4345   -0.5517 C.ar      1 UNK         0.0000 
     40 C40        -4.1413   -1.3399    0.2464 C.ar      1 UNK         0.0000 
     41 C41        -4.1538   -0.0693   -0.3072 C.ar      1 UNK         0.0000 
     42 H42        -3.8380    0.7761    0.2970 H         1 UNK         0.0000 
     43 H43        -3.8065   -1.4975    1.2655 H         1 UNK         0.0000 
     44 C44        -4.9725   -2.2641   -1.8414 C.ar      1 UNK         0.0000 
     45 H45        -5.2580   -3.1319   -2.4267 H         1 UNK         0.0000 
     46 C46        -5.0096   -0.9807   -2.3807 C.ar      1 UNK         0.0000 
     47 H47        -5.3470   -0.8267   -3.4015 H         1 UNK         0.0000 
     48 C48        -4.5395    0.1110   -1.6418 C.ar      1 UNK         0.0000 
     49 C49        -4.3652    1.4250   -2.3161 C.2       1 UNK         0.0000 
     50 O50        -4.9827    1.7169   -3.3269 O.2       1 UNK         0.0000 
     51 C51        -3.3288    2.4029   -1.7555 C.3       1 UNK         0.0000 
     52 H52        -3.2022    3.1918   -2.5009 H         1 UNK         0.0000 
     53 H53        -3.7166    2.8535   -0.8361 H         1 UNK         0.0000 
     54 N54        -2.0521    1.7890   -1.4399 N.am      1 UNK         0.0000 
     55 H55        -1.5287    1.3531   -2.2013 H         1 UNK         0.0000 
     56 C56        -1.5296    1.8249   -0.1943 C.2       1 UNK         0.0000 
     57 O57        -2.1268    2.3055    0.7691 O.2       1 UNK         0.0000 
     58 C58        -0.1009    1.3068   -0.0106 C.3       1 UNK         0.0000 
     59 H59         0.0126    1.1320    1.0605 H         1 UNK         0.0000 
     60 C60         0.9168    2.3832   -0.4630 C.3       1 UNK         0.0000 
     61 H61         0.8408    2.5130   -1.5471 H         1 UNK         0.0000 
     62 H62         1.9141    1.9977   -0.2280 H         1 UNK         0.0000 
     63 C63         0.6876    3.7101    0.2130 C.ar      1 UNK         0.0000 
     64 C64         1.1886    3.9550    1.4957 C.ar      1 UNK         0.0000 
     65 H65         1.7840    3.1980    1.9974 H         1 UNK         0.0000 
     66 C66         0.9121    5.1728    2.1069 C.ar      1 UNK         0.0000 
     67 H67         1.2897    5.3888    3.1012 H         1 UNK         0.0000 
     68 C68         0.1446    6.1088    1.4171 C.ar      1 UNK         0.0000 
     69 H69        -0.0970    7.0732    1.8496 H         1 UNK         0.0000 
     70 C70        -0.3074    5.7777    0.1425 C.ar      1 UNK         0.0000 
     71 H71        -0.9047    6.4840   -0.4288 H         1 UNK         0.0000 
     72 N72        -0.0487    4.6087   -0.4548 N.ar      1 UNK         0.0000 
     73 C73        -0.5552   -2.2351   -4.7152 C.3       1 UNK         0.0000 
     74 H74         0.3271   -2.4920   -4.1240 H         1 UNK         0.0000 
     75 H75        -0.2534   -1.6869   -5.6101 H         1 UNK         0.0000 
     76 H76        -1.1239   -3.1314   -4.9731 H         1 UNK         0.0000 
     77 S77        -1.5951   -1.1656   -3.7052 S.3       1 UNK         0.0000 
     78 C78        -2.7239   -0.6160   -4.9971 C.3       1 UNK         0.0000 
     79 H79        -3.3065   -1.4739   -5.3402 H         1 UNK         0.0000 
     80 H80        -2.1355   -0.1863   -5.8102 H         1 UNK         0.0000 
     81 H81        -3.3862    0.1364   -4.5658 H         1 UNK         0.0000 
     82 O82        -0.7101    0.0692   -3.4057 O.2       1 UNK         0.0000 
     83 C83         5.6014   -3.9102   -0.3627 C.3       1 UNK         0.0000 
     84 H84         5.0224   -3.7916   -1.2794 H         1 UNK         0.0000 
     85 H85         4.9698   -4.2804    0.4481 H         1 UNK         0.0000 
     86 H86         6.4501   -4.5747   -0.5381 H         1 UNK         0.0000 
     87 S87         6.2152   -2.2735    0.0856 S.3       1 UNK         0.0000 
     88 C88         7.0077   -2.7323    1.6400 C.3       1 UNK         0.0000 
     89 H89         6.2635   -3.1983    2.2889 H         1 UNK         0.0000 
     90 H90         7.3884   -1.8157    2.0910 H         1 UNK         0.0000 
     91 H91         7.8323   -3.4162    1.4296 H         1 UNK         0.0000 
     92 O92         4.9702   -1.4731    0.5002 O.2       1 UNK         0.0000 
@<TRIPOS>BOND
     1    1    5 1    
     2    1    2 1    
     3    1    3 1    
     4    1    4 1    
     5    5   10 1    
     6    5    6 1    
     7    5   14 1    
     8    6    7 1    
     9    6    8 1    
    10    6    9 1    
    11   10   12 1    
    12   10   11 1    
    13   10   13 1    
    14   14   15 1    
    15   15   16 2    
    16   15   17 am   BACKBONE|DICT|INTERRES
    17   17   18 1    
    18   17   19 1    
    19   19   24 1    
    20   19   20 1    
    21   19   25 1    
    22   20   21 am   BACKBONE|DICT|INTERRES
    23   20   23 2    
    24   21   22 1    
    25   21   58 1    
    26   25   27 1    
    27   25   26 1    
    28   25   28 1    
    29   28   33 ar   
    30   28   29 ar   
    31   29   30 ar   
    32   29   32 1    
    33   30   37 ar   
    34   30   31 1    
    35   33   34 1    
    36   33   35 ar   
    37   35   36 1    
    38   35   37 ar   
    39   37   38 1    
    40   38   39 1    
    41   39   44 ar   
    42   39   40 ar   
    43   40   41 ar   
    44   40   43 1    
    45   41   48 ar   
    46   41   42 1    
    47   44   45 1    
    48   44   46 ar   
    49   46   47 1    
    50   46   48 ar   
    51   48   49 1    
    52   49   50 2    
    53   49   51 1    
    54   51   52 1    
    55   51   53 1    
    56   51   54 1    
    57   54   55 1    
    58   54   56 am   BACKBONE|DICT|INTERRES
    59   56   57 2    
    60   56   58 1    
    61   58   59 1    
    62   58   60 1    
    63   60   61 1    
    64   60   62 1    
    65   60   63 1    
    66   63   72 ar   
    67   63   64 ar   
    68   64   65 1    
    69   64   66 ar   
    70   66   68 ar   
    71   66   67 1    
    72   68   70 ar   
    73   68   69 1    
    74   70   72 ar   
    75   70   71 1    
    76   73   75 1    
    77   73   74 1    
    78   73   76 1    
    79   73   77 1    
    80   77   82 2    
    81   77   78 1    
    82   78   80 1    
    83   78   79 1    
    84   78   81 1    
    85   83   87 1    
    86   83   84 1    
    87   83   85 1    
    88   83   86 1    
    89   87   88 1    
    90   87   92 2    
    91   88   91 1    
    92   88   89 1    
    93   88   90 1    
@<TRIPOS>SUBSTRUCTURE
     1 UNK         1 GROUP             0       ****    0 ROOT    
@<TRIPOS>MOLECULE
Cpd5-1000
82   84    1
SMALL
USER_CHARGES


@<TRIPOS>ATOM
      1 C1          6.5771    0.5895    1.3075 C.3       1 ****        0.0000 
      2 H2          6.6629    0.6965    0.2221 H         1 ****        0.0000 
      3 H3          6.7113    1.5711    1.7702 H         1 ****        0.0000 
      4 H4          7.3733   -0.0739    1.6550 H         1 ****        0.0000 
      5 C5          5.2204    0.0040    1.6831 C.3       1 ****        0.0000 
      6 C6          5.0863   -0.1030    3.1991 C.3       1 ****        0.0000 
      7 H7          5.1772    0.8867    3.6567 H         1 ****        0.0000 
      8 H8          4.1300   -0.5440    3.4831 H         1 ****        0.0000 
      9 H9          5.8929   -0.7342    3.5834 H         1 ****        0.0000 
     10 C10         5.0029   -1.3342    0.9845 C.3       1 ****        0.0000 
     11 H11         5.0136   -1.2007   -0.1014 H         1 ****        0.0000 
     12 H12         5.8136   -2.0147    1.2613 H         1 ****        0.0000 
     13 H13         4.0506   -1.7819    1.2720 H         1 ****        0.0000 
     14 O14         4.2859    1.0051    1.1648 O.3       1 ****        0.0000 
     15 C15         2.9605    0.8521    1.2989 C.2       1 ****        0.0000 
     16 O16         2.4051   -0.0931    1.8410 O.2       1 ****        0.0000 
     17 N17         2.3048    1.9288    0.7899 N.am      1 ****        0.0000 
     18 H18         2.8380    2.5856    0.2342 H         1 ****        0.0000 
     19 C19         0.8562    1.9602    0.7139 C.3       1 ****        0.0000 
     20 C20         0.4128    1.4853   -0.6808 C.2       1 ****        0.0000 
     21 N21        -0.0558    0.2158   -0.7435 N.am      1 ****        0.0000 
     22 H22         0.0592   -0.3864    0.0793 H         1 ****        0.0000 
     23 O23         0.5154    2.2323   -1.6523 O.2       1 ****        0.0000 
     24 H24         0.4885    1.2655    1.4741 H         1 ****        0.0000 
     25 C25         0.3334    3.3757    1.0042 C.3       1 ****        0.0000 
     26 H26         0.6909    4.0547    0.2240 H         1 ****        0.0000 
     27 H27         0.7566    3.6943    1.9618 H         1 ****        0.0000 
     28 C28        -1.1740    3.3673    1.0551 C.3       1 ****        0.0000 
     29 C29        -1.9440    3.8011   -0.0266 C.3       1 ****        0.0000 
     30 C30        -3.3230    3.5846   -0.0573 C.3       1 ****        0.0000 
     31 H31        -3.9160    3.8688   -0.9207 H         1 ****        0.0000 
     32 H32        -1.4550    4.2631   -0.8794 H         1 ****        0.0000 
     33 C33        -1.8234    2.7982    2.1575 C.3       1 ****        0.0000 
     34 H34        -1.2424    2.4877    3.0227 H         1 ****        0.0000 
     35 C35        -3.1945    2.5703    2.1384 C.3       1 ****        0.0000 
     36 H36        -3.6912    2.0731    2.9655 H         1 ****        0.0000 
     37 C37        -3.9227    2.9183    1.0036 C.3       1 ****        0.0000 
     38 O38        -5.2432    2.4649    0.8838 O.3       1 ****        0.0000 
     39 C39        -5.1898    1.1154    0.5462 C.3       1 ****        0.0000 
     40 C40        -4.7945    0.7580   -0.7429 C.3       1 ****        0.0000 
     41 C41        -4.4648   -0.5631   -1.0073 C.3       1 ****        0.0000 
     42 H42        -4.0930   -0.8320   -1.9920 H         1 ****        0.0000 
     43 H43        -4.6735    1.5249   -1.5004 H         1 ****        0.0000 
     44 C44        -5.4089    0.1540    1.5290 C.3       1 ****        0.0000 
     45 H45        -5.7451    0.4598    2.5141 H         1 ****        0.0000 
     46 C46        -5.0976   -1.1741    1.2491 C.3       1 ****        0.0000 
     47 H47        -5.1956   -1.9346    2.0175 H         1 ****        0.0000 
     48 C48        -4.5679   -1.5264    0.0036 C.3       1 ****        0.0000 
     49 C49        -4.0255   -2.8988   -0.1865 C.2       1 ****        0.0000 
     50 O50        -4.4387   -3.8511    0.4520 O.2       1 ****        0.0000 
     51 C51        -2.8830   -3.0972   -1.1857 C.3       1 ****        0.0000 
     52 H52        -2.4769   -4.0959   -1.0059 H         1 ****        0.0000 
     53 H53        -3.2898   -3.0669   -2.2019 H         1 ****        0.0000 
     54 N54        -1.8333   -2.0989   -1.0975 N.am      1 ****        0.0000 
     55 H55        -1.2392   -2.0948   -0.2627 H         1 ****        0.0000 
     56 C56        -1.5165   -1.3059   -2.1417 C.2       1 ****        0.0000 
     57 O57        -2.1420   -1.3113   -3.2042 O.2       1 ****        0.0000 
     58 C58        -0.2672   -0.4259   -2.0307 C.3       1 ****        0.0000 
     59 H59        -0.4148    0.3709   -2.7621 H         1 ****        0.0000 
     60 C60         0.9594   -1.2724   -2.4531 C.3       1 ****        0.0000 
     61 H61         0.6856   -1.8611   -3.3344 H         1 ****        0.0000 
     62 H62         1.2176   -1.9610   -1.6414 H         1 ****        0.0000 
     63 C63         2.1380   -0.3899   -2.7714 C.3       1 ****        0.0000 
     64 C64         2.3034    0.1136   -4.0676 C.3       1 ****        0.0000 
     65 H65         1.6090   -0.1745   -4.8511 H         1 ****        0.0000 
     66 C66         3.3548    0.9831   -4.3274 C.3       1 ****        0.0000 
     67 H67         3.5045    1.3871   -5.3236 H         1 ****        0.0000 
     68 C68         4.2111    1.3238   -3.2820 C.3       1 ****        0.0000 
     69 H69         5.0461    1.9996   -3.4296 H         1 ****        0.0000 
     70 C70         3.9748    0.7651   -2.0297 C.3       1 ****        0.0000 
     71 H71         4.6216    1.0038   -1.1885 H         1 ****        0.0000 
     72 N72         2.9660   -0.0763   -1.7672 N.3       1 ****        0.0000 
     73 C73         0.7087   -4.4450    1.0288 C.3       1 ****        0.0000 
     74 H74         1.5468   -5.1107    1.2438 H         1 ****        0.0000 
     75 H75         0.4098   -4.5507   -0.0152 H         1 ****        0.0000 
     76 H76        -0.1354   -4.6445    1.6922 H         1 ****        0.0000 
     77 S77         1.2381   -2.7368    1.2598 S.o       1 ****        0.0000 
     78 C78         1.5653   -2.8001    3.0280 C.3       1 ****        0.0000 
     79 H79         1.8241   -1.7852    3.3269 H         1 ****        0.0000 
     80 H80         2.4048   -3.4761    3.2040 H         1 ****        0.0000 
     81 H81         0.6636   -3.1500    3.5345 H         1 ****        0.0000 
     82 O82        -0.0715   -1.9239    1.1329 O.3       1 ****        0.0000 
@<TRIPOS>BOND
     1    1    2 1    
     2    1    3 1    
     3    1    4 1    
     4    1    5 1    
     5    5    6 1    
     6    5   10 1    
     7    5   14 1    
     8    6    7 1    
     9    6    8 1    
    10    6    9 1    
    11   10   11 1    
    12   10   12 1    
    13   10   13 1    
    14   14   15 1    
    15   15   16 2    
    16   15   17 am   BACKBONE|DICT|INTERRES
    17   17   18 1    
    18   17   19 1    
    19   19   20 1    
    20   19   24 1    
    21   19   25 1    
    22   20   21 am   BACKBONE|DICT|INTERRES
    23   20   23 2    
    24   21   22 1    
    25   21   58 1    
    26   25   26 1    
    27   25   27 1    
    28   25   28 1    
    29   28   29 1    
    30   28   33 1    
    31   29   30 1    
    32   29   32 1    
    33   30   31 1    
    34   30   37 1    
    35   33   34 1    
    36   33   35 1    
    37   35   36 1    
    38   35   37 1    
    39   37   38 1    
    40   38   39 1    
    41   39   40 1    
    42   39   44 1    
    43   40   41 1    
    44   40   43 1    
    45   41   42 1    
    46   41   48 1    
    47   44   45 1    
    48   44   46 1    
    49   46   47 1    
    50   46   48 1    
    51   48   49 1    
    52   49   50 2    
    53   49   51 1    
    54   51   52 1    
    55   51   53 1    
    56   51   54 1    
    57   54   55 1    
    58   54   56 am   BACKBONE|DICT|INTERRES
    59   56   57 2    
    60   56   58 1    
    61   58   59 1    
    62   58   60 1    
    63   60   61 1    
    64   60   62 1    
    65   60   63 1    
    66   63   64 1    
    67   63   72 1    
    68   64   65 1    
    69   64   66 1    
    70   66   67 1    
    71   66   68 1    
    72   68   69 1    
    73   68   70 1    
    74   70   71 1    
    75   70   72 1    
    76   73   74 1    
    77   73   75 1    
    78   73   76 1    
    79   73   77 1    
    80   77   78 1    
    81   77   82 1    
    82   78   79 1    
    83   78   80 1    
    84   78   81 1    
@<TRIPOS>SUBSTRUCTURE
     1 ****        1 GROUP             0       ****    0 ROOT    
@<TRIPOS>MOLECULE
Cpd5-1500
92   93    1
SMALL
USER_CHARGES


@<TRIPOS>ATOM
      1 C1          7.5462   -0.7700   -1.2637 C.3       1 UNK         0.0000 
      2 H2          7.7627   -1.6773   -0.6914 H         1 UNK         0.0000 
      3 H3          8.3915   -0.5721   -1.9277 H         1 UNK         0.0000 
      4 H4          7.4445    0.0711   -0.5716 H         1 UNK         0.0000 
      5 C5          6.2776   -0.9416   -2.0922 C.3       1 UNK         0.0000 
      6 C6          6.4180   -2.1287   -3.0401 C.3       1 UNK         0.0000 
      7 H7          7.2632   -1.9528   -3.7120 H         1 UNK         0.0000 
      8 H8          6.6166   -3.0433   -2.4722 H         1 UNK         0.0000 
      9 H9          5.5164   -2.2651   -3.6383 H         1 UNK         0.0000 
     10 C10         5.9516    0.3558   -2.8270 C.3       1 UNK         0.0000 
     11 H11         5.7231    1.1475   -2.1062 H         1 UNK         0.0000 
     12 H12         6.8254    0.6635   -3.4089 H         1 UNK         0.0000 
     13 H13         5.1051    0.2269   -3.5013 H         1 UNK         0.0000 
     14 O14         5.2583   -1.2326   -1.0820 O.3       1 UNK         0.0000 
     15 C15         3.9698   -1.4251   -1.4418 C.2       1 UNK         0.0000 
     16 O16         3.5398   -1.3190   -2.5828 O.2       1 UNK         0.0000 
     17 N17         3.2246   -1.7539   -0.3619 N.am      1 UNK         0.0000 
     18 H18         3.6695   -1.8994    0.5523 H         1 UNK         0.0000 
     19 C19         1.8139   -2.0626   -0.4842 C.3       1 UNK         0.0000 
     20 C20         1.0071   -0.8975    0.1099 C.2       1 UNK         0.0000 
     21 N21         0.4525   -0.0485   -0.7800 N.am      1 UNK         0.0000 
     22 H22         0.6202   -0.1588   -1.7734 H         1 UNK         0.0000 
     23 O23         0.9041   -0.7470    1.3283 O.2       1 UNK         0.0000 
     24 H24         1.5899   -2.1583   -1.5505 H         1 UNK         0.0000 
     25 C25         1.4868   -3.3824    0.2366 C.3       1 UNK         0.0000 
     26 H26         1.7568   -3.2777    1.2916 H         1 UNK         0.0000 
     27 H27         2.1187   -4.1609   -0.2024 H         1 UNK         0.0000 
     28 C28         0.0239   -3.7157    0.0828 C.ar      1 UNK         0.0000 
     29 C29        -0.8957   -3.3442    1.0701 C.ar      1 UNK         0.0000 
     30 C30        -2.2637   -3.4441    0.8386 C.ar      1 UNK         0.0000 
     31 H31        -2.9886   -3.1131    1.5759 H         1 UNK         0.0000 
     32 H32        -0.5332   -2.9255    2.0047 H         1 UNK         0.0000 
     33 C33        -0.4564   -4.2911   -1.0988 C.ar      1 UNK         0.0000 
     34 H34         0.2469   -4.6174   -1.8611 H         1 UNK         0.0000 
     35 C35        -1.8262   -4.3977   -1.3439 C.ar      1 UNK         0.0000 
     36 H36        -2.2022   -4.7845   -2.2857 H         1 UNK         0.0000 
     37 C37        -2.7131   -3.9125   -0.3915 C.ar      1 UNK         0.0000 
     38 O38        -4.0701   -3.7711   -0.6974 O.3       1 UNK         0.0000 
     39 C39        -4.3560   -2.4430   -0.9665 C.ar      1 UNK         0.0000 
     40 C40        -5.3699   -1.8050   -0.2536 C.ar      1 UNK         0.0000 
     41 C41        -5.5514   -0.4332   -0.4203 C.ar      1 UNK         0.0000 
     42 H42        -6.3053    0.0901    0.1608 H         1 UNK         0.0000 
     43 H43        -5.9615   -2.3707    0.4583 H         1 UNK         0.0000 
     44 C44        -3.5954   -1.7482   -1.9100 C.ar      1 UNK         0.0000 
     45 H45        -2.8375   -2.2664   -2.4861 H         1 UNK         0.0000 
     46 C46        -3.7695   -0.3822   -2.0528 C.ar      1 UNK         0.0000 
     47 H47        -3.1382    0.1541   -2.7527 H         1 UNK         0.0000 
     48 C48        -4.7194    0.2957   -1.2794 C.ar      1 UNK         0.0000 
     49 C49        -4.7818    1.7836   -1.2939 C.2       1 UNK         0.0000 
     50 O50        -5.7700    2.3927   -0.9224 O.2       1 UNK         0.0000 
     51 C51        -3.5138    2.5489   -1.7024 C.3       1 UNK         0.0000 
     52 H52        -3.2748    2.3652   -2.7539 H         1 UNK         0.0000 
     53 H53        -3.7201    3.6127   -1.5680 H         1 UNK         0.0000 
     54 N54        -2.3782    2.1414   -0.8969 N.am      1 UNK         0.0000 
     55 H55        -2.4097    2.3026    0.1184 H         1 UNK         0.0000 
     56 C56        -1.3038    1.4937   -1.3892 C.2       1 UNK         0.0000 
     57 O57        -1.1392    1.2132   -2.5773 O.2       1 UNK         0.0000 
     58 C58        -0.2450    1.1433   -0.3446 C.3       1 UNK         0.0000 
     59 H59        -0.7254    0.9173    0.6077 H         1 UNK         0.0000 
     60 C60         0.6981    2.3469   -0.0946 C.3       1 UNK         0.0000 
     61 H61         1.5054    1.9960    0.5547 H         1 UNK         0.0000 
     62 H62         0.1283    3.1093    0.4452 H         1 UNK         0.0000 
     63 C63         1.2657    2.9178   -1.3667 C.ar      1 UNK         0.0000 
     64 C64         0.6921    4.0479   -1.9600 C.ar      1 UNK         0.0000 
     65 H65        -0.1437    4.5459   -1.4774 H         1 UNK         0.0000 
     66 C66         1.2035    4.5129   -3.1667 C.ar      1 UNK         0.0000 
     67 H67         0.7764    5.3881   -3.6459 H         1 UNK         0.0000 
     68 C68         2.2726    3.8341   -3.7455 C.ar      1 UNK         0.0000 
     69 H69         2.7080    4.1558   -4.6849 H         1 UNK         0.0000 
     70 C70         2.7823    2.7218   -3.0795 C.ar      1 UNK         0.0000 
     71 H71         3.6215    2.1706   -3.4965 H         1 UNK         0.0000 
     72 N72         2.3009    2.2672   -1.9176 N.ar      1 UNK         0.0000 
     73 C73        -2.6750   -0.2705    2.0489 C.3       1 UNK         0.0000 
     74 H74        -1.6178   -0.5488    2.0684 H         1 UNK         0.0000 
     75 H75        -3.0332   -0.1902    1.0158 H         1 UNK         0.0000 
     76 H76        -3.2659   -0.9994    2.6078 H         1 UNK         0.0000 
     77 S77        -2.8335    1.3307    2.8720 S.3       1 UNK         0.0000 
     78 C78        -4.6129    1.5521    2.6732 C.3       1 UNK         0.0000 
     79 H79        -4.8601    1.5302    1.6093 H         1 UNK         0.0000 
     80 H80        -4.8631    2.5243    3.0989 H         1 UNK         0.0000 
     81 H81        -5.1362    0.7607    3.2134 H         1 UNK         0.0000 
     82 O82        -2.1899    2.3518    1.9177 O.2       1 UNK         0.0000 
     83 C83         6.4863   -1.2696    2.2066 C.3       1 UNK         0.0000 
     84 H84         7.5635   -1.4481    2.2220 H         1 UNK         0.0000 
     85 H85         6.2107   -0.5774    3.0027 H         1 UNK         0.0000 
     86 H86         6.1590   -0.8933    1.2343 H         1 UNK         0.0000 
     87 S87         5.6135   -2.8162    2.5244 S.3       1 UNK         0.0000 
     88 C88         6.1884   -3.7352    1.0801 C.3       1 UNK         0.0000 
     89 H89         5.6674   -4.6932    1.0843 H         1 UNK         0.0000 
     90 H90         7.2654   -3.8960    1.1636 H         1 UNK         0.0000 
     91 H91         5.9404   -3.1623    0.1827 H         1 UNK         0.0000 
     92 O92         4.1373   -2.4977    2.2358 O.2       1 UNK         0.0000 
@<TRIPOS>BOND
     1    1    2 1    
     2    1    4 1    
     3    1    3 1    
     4    1    5 1    
     5    5   14 1    
     6    5    6 1    
     7    5   10 1    
     8    6    8 1    
     9    6    7 1    
    10    6    9 1    
    11   10   11 1    
    12   10   12 1    
    13   10   13 1    
    14   14   15 1    
    15   15   17 am   BACKBONE|DICT|INTERRES
    16   15   16 2    
    17   17   18 1    
    18   17   19 1    
    19   19   24 1    
    20   19   25 1    
    21   19   20 1    
    22   20   23 2    
    23   20   21 am   BACKBONE|DICT|INTERRES
    24   21   58 1    
    25   21   22 1    
    26   25   26 1    
    27   25   27 1    
    28   25   28 1    
    29   28   29 ar   
    30   28   33 ar   
    31   29   32 1    
    32   29   30 ar   
    33   30   31 1    
    34   30   37 ar   
    35   33   34 1    
    36   33   35 ar   
    37   35   37 ar   
    38   35   36 1    
    39   37   38 1    
    40   38   39 1    
    41   39   40 ar   
    42   39   44 ar   
    43   40   43 1    
    44   40   41 ar   
    45   41   42 1    
    46   41   48 ar   
    47   44   46 ar   
    48   44   45 1    
    49   46   48 ar   
    50   46   47 1    
    51   48   49 1    
    52   49   51 1    
    53   49   50 2    
    54   51   53 1    
    55   51   54 1    
    56   51   52 1    
    57   54   55 1    
    58   54   56 am   BACKBONE|DICT|INTERRES
    59   56   58 1    
    60   56   57 2    
    61   58   59 1    
    62   58   60 1    
    63   60   61 1    
    64   60   62 1    
    65   60   63 1    
    66   63   64 ar   
    67   63   72 ar   
    68   64   65 1    
    69   64   66 ar   
    70   66   67 1    
    71   66   68 ar   
    72   68   70 ar   
    73   68   69 1    
    74   70   72 ar   
    75   70   71 1    
    76   73   74 1    
    77   73   76 1    
    78   73   77 1    
    79   73   75 1    
    80   77   78 1    
    81   77   82 2    
    82   78   81 1    
    83   78   80 1    
    84   78   79 1    
    85   83   84 1    
    86   83   85 1    
    87   83   86 1    
    88   83   87 1    
    89   87   88 1    
    90   87   92 2    
    91   88   90 1    
    92   88   89 1    
    93   88   91 1    
@<TRIPOS>SUBSTRUCTURE
     1 UNK         1 GROUP             0       ****    0 ROOT    
@<TRIPOS>MOLECULE
Cpd5-2000
92   93    1
SMALL
USER_CHARGES


@<TRIPOS>ATOM
      1 C1          4.1043   -0.0936   -5.3138 C.3       1 UNK         0.0000 
      2 H2          3.8467    0.8287   -4.7830 H         1 UNK         0.0000 
      3 H3          4.6795    0.1720   -6.2056 H         1 UNK         0.0000 
      4 H4          3.1859   -0.5924   -5.6213 H         1 UNK         0.0000 
      5 C5          4.9576   -0.9974   -4.4254 C.3       1 UNK         0.0000 
      6 C6          6.3187   -0.3556   -4.1812 C.3       1 UNK         0.0000 
      7 H7          6.8442   -0.2370   -5.1323 H         1 UNK         0.0000 
      8 H8          6.2038    0.6293   -3.7186 H         1 UNK         0.0000 
      9 H9          6.9303   -0.9812   -3.5250 H         1 UNK         0.0000 
     10 C10         5.1210   -2.3930   -5.0194 C.3       1 UNK         0.0000 
     11 H11         4.1517   -2.8695   -5.1731 H         1 UNK         0.0000 
     12 H12         5.6318   -2.3149   -5.9837 H         1 UNK         0.0000 
     13 H13         5.7309   -3.0191   -4.3607 H         1 UNK         0.0000 
     14 O14         4.3934   -1.0933   -3.0785 O.3       1 UNK         0.0000 
     15 C15         3.1286   -1.5298   -2.8919 C.2       1 UNK         0.0000 
     16 O16         2.3762   -1.8868   -3.7938 O.2       1 UNK         0.0000 
     17 N17         2.8096   -1.5215   -1.5816 N.am      1 UNK         0.0000 
     18 H18         3.5219   -1.2323   -0.9016 H         1 UNK         0.0000 
     19 C19         1.4839   -1.9130   -1.1485 C.3       1 UNK         0.0000 
     20 C20         0.9934   -0.8997   -0.1059 C.2       1 UNK         0.0000 
     21 N21         0.0783   -0.0159   -0.5576 N.am      1 UNK         0.0000 
     22 H22        -0.1059   -0.0205   -1.5663 H         1 UNK         0.0000 
     23 O23         1.4167   -0.9140    1.0493 O.2       1 UNK         0.0000 
     24 H24         0.8358   -1.8635   -2.0287 H         1 UNK         0.0000 
     25 C25         1.4340   -3.3421   -0.5721 C.3       1 UNK         0.0000 
     26 H26         2.0221   -3.3766    0.3499 H         1 UNK         0.0000 
     27 H27         1.8911   -4.0134   -1.3060 H         1 UNK         0.0000 
     28 C28        -0.0089   -3.7054   -0.3260 C.ar      1 UNK         0.0000 
     29 C29        -0.6056   -3.5248    0.9248 C.ar      1 UNK         0.0000 
     30 C30        -1.9926   -3.5893    1.0734 C.ar      1 UNK         0.0000 
     31 H31        -2.4635   -3.3896    2.0306 H         1 UNK         0.0000 
     32 H32         0.0135   -3.2666    1.7794 H         1 UNK         0.0000 
     33 C33        -0.8201   -4.0589   -1.4114 C.ar      1 UNK         0.0000 
     34 H34        -0.3669   -4.2308   -2.3852 H         1 UNK         0.0000 
     35 C35        -2.2025   -4.1251   -1.2791 C.ar      1 UNK         0.0000 
     36 H36        -2.8365   -4.3382   -2.1337 H         1 UNK         0.0000 
     37 C37        -2.7792   -3.8320   -0.0458 C.ar      1 UNK         0.0000 
     38 O38        -4.1674   -3.6515    0.0274 O.3       1 UNK         0.0000 
     39 C39        -4.4555   -2.3917   -0.4899 C.ar      1 UNK         0.0000 
     40 C40        -4.1898   -1.2643    0.2879 C.ar      1 UNK         0.0000 
     41 C41        -4.2084   -0.0118   -0.3092 C.ar      1 UNK         0.0000 
     42 H42        -3.9478    0.8642    0.2788 H         1 UNK         0.0000 
     43 H43        -3.9001   -1.3836    1.3264 H         1 UNK         0.0000 
     44 C44        -4.8885   -2.2753   -1.8079 C.ar      1 UNK         0.0000 
     45 H45        -5.1214   -3.1684   -2.3779 H         1 UNK         0.0000 
     46 C46        -4.9217   -1.0131   -2.3952 C.ar      1 UNK         0.0000 
     47 H47        -5.1884   -0.9015   -3.4416 H         1 UNK         0.0000 
     48 C48        -4.5230    0.1128   -1.6686 C.ar      1 UNK         0.0000 
     49 C49        -4.3291    1.3983   -2.3943 C.2       1 UNK         0.0000 
     50 O50        -4.9776    1.6865   -3.3844 O.2       1 UNK         0.0000 
     51 C51        -3.2389    2.3560   -1.9043 C.3       1 UNK         0.0000 
     52 H52        -3.0223    3.0391   -2.7298 H         1 UNK         0.0000 
     53 H53        -3.6332    2.9435   -1.0688 H         1 UNK         0.0000 
     54 N54        -2.0320    1.6920   -1.4479 N.am      1 UNK         0.0000 
     55 H55        -1.5333    1.1081   -2.1219 H         1 UNK         0.0000 
     56 C56        -1.5946    1.8287   -0.1787 C.2       1 UNK         0.0000 
     57 O57        -2.1679    2.5448    0.6454 O.2       1 UNK         0.0000 
     58 C58        -0.3332    1.0954    0.2797 C.3       1 UNK         0.0000 
     59 H59        -0.5957    0.6912    1.2623 H         1 UNK         0.0000 
     60 C60         0.8097    2.1225    0.5046 C.3       1 UNK         0.0000 
     61 H61         1.5341    1.6650    1.1800 H         1 UNK         0.0000 
     62 H62         0.3814    3.0044    0.9885 H         1 UNK         0.0000 
     63 C63         1.5227    2.4862   -0.7703 C.ar      1 UNK         0.0000 
     64 C64         1.0667    3.5084   -1.6098 C.ar      1 UNK         0.0000 
     65 H65         0.1790    4.0758   -1.3435 H         1 UNK         0.0000 
     66 C66         1.7828    3.7999   -2.7686 C.ar      1 UNK         0.0000 
     67 H67         1.4617    4.6015   -3.4272 H         1 UNK         0.0000 
     68 C68         2.9166    3.0482   -3.0651 C.ar      1 UNK         0.0000 
     69 H69         3.5051    3.2409   -3.9559 H         1 UNK         0.0000 
     70 C70         3.2832    2.0353   -2.1799 C.ar      1 UNK         0.0000 
     71 H71         4.1542    1.4115   -2.3754 H         1 UNK         0.0000 
     72 N72         2.6140    1.7607   -1.0571 N.ar      1 UNK         0.0000 
     73 C73        -0.3015    2.0568   -4.9248 C.3       1 UNK         0.0000 
     74 H74        -0.4470    2.7469   -4.0923 H         1 UNK         0.0000 
     75 H75        -1.2598    1.7767   -5.3674 H         1 UNK         0.0000 
     76 H76         0.3624    2.5077   -5.6657 H         1 UNK         0.0000 
     77 S77         0.4867    0.5808   -4.2530 S.3       1 UNK         0.0000 
     78 C78         0.3637   -0.4590   -5.7170 C.3       1 UNK         0.0000 
     79 H79         0.8026   -1.4206   -5.4518 H         1 UNK         0.0000 
     80 H80         0.9256    0.0075   -6.5292 H         1 UNK         0.0000 
     81 H81        -0.6933   -0.5536   -5.9741 H         1 UNK         0.0000 
     82 O82        -0.5775   -0.0037   -3.2892 O.2       1 UNK         0.0000 
     83 C83         6.6659   -2.5621   -1.1394 C.3       1 UNK         0.0000 
     84 H84         5.9173   -2.7394   -1.9133 H         1 UNK         0.0000 
     85 H85         6.5502   -3.2748   -0.3198 H         1 UNK         0.0000 
     86 H86         7.6709   -2.6100   -1.5646 H         1 UNK         0.0000 
     87 S87         6.3579   -0.9011   -0.5062 S.3       1 UNK         0.0000 
     88 C88         7.5716   -0.9162    0.8286 C.3       1 UNK         0.0000 
     89 H89         7.4684    0.0252    1.3685 H         1 UNK         0.0000 
     90 H90         8.5728   -0.9940    0.4003 H         1 UNK         0.0000 
     91 H91         7.3572   -1.7608    1.4867 H         1 UNK         0.0000 
     92 O92         4.9969   -0.9924    0.2001 O.2       1 UNK         0.0000 
@<TRIPOS>BOND
     1    1    3 1    
     2    1    4 1    
     3    1    2 1    
     4    1    5 1    
     5    5   10 1    
     6    5    6 1    
     7    5   14 1    
     8    6    7 1    
     9    6    8 1    
    10    6    9 1    
    11   10   11 1    
    12   10   12 1    
    13   10   13 1    
    14   14   15 1    
    15   15   16 2    
    16   15   17 am   BACKBONE|DICT|INTERRES
    17   17   18 1    
    18   17   19 1    
    19   19   25 1    
    20   19   24 1    
    21   19   20 1    
    22   20   21 am   BACKBONE|DICT|INTERRES
    23   20   23 2    
    24   21   22 1    
    25   21   58 1    
    26   25   28 1    
    27   25   27 1    
    28   25   26 1    
    29   28   33 ar   
    30   28   29 ar   
    31   29   30 ar   
    32   29   32 1    
    33   30   37 ar   
    34   30   31 1    
    35   33   35 ar   
    36   33   34 1    
    37   35   36 1    
    38   35   37 ar   
    39   37   38 1    
    40   38   39 1    
    41   39   44 ar   
    42   39   40 ar   
    43   40   41 ar   
    44   40   43 1    
    45   41   48 ar   
    46   41   42 1    
    47   44   45 1    
    48   44   46 ar   
    49   46   47 1    
    50   46   48 ar   
    51   48   49 1    
    52   49   50 2    
    53   49   51 1    
    54   51   52 1    
    55   51   53 1    
    56   51   54 1    
    57   54   55 1    
    58   54   56 am   BACKBONE|DICT|INTERRES
    59   56   57 2    
    60   56   58 1    
    61   58   59 1    
    62   58   60 1    
    63   60   63 1    
    64   60   61 1    
    65   60   62 1    
    66   63   64 ar   
    67   63   72 ar   
    68   64   66 ar   
    69   64   65 1    
    70   66   67 1    
    71   66   68 ar   
    72   68   69 1    
    73   68   70 ar   
    74   70   71 1    
    75   70   72 ar   
    76   73   77 1    
    77   73   76 1    
    78   73   75 1    
    79   73   74 1    
    80   77   78 1    
    81   77   82 2    
    82   78   79 1    
    83   78   81 1    
    84   78   80 1    
    85   83   86 1    
    86   83   84 1    
    87   83   85 1    
    88   83   87 1    
    89   87   88 1    
    90   87   92 2    
    91   88   90 1    
    92   88   89 1    
    93   88   91 1    
@<TRIPOS>SUBSTRUCTURE
     1 UNK         1 GROUP             0       ****    0 ROOT    
@<TRIPOS>MOLECULE
Cpd5-2500
92   93    1
SMALL
USER_CHARGES


@<TRIPOS>ATOM
      1 C1          4.2048    1.6763   -3.1428 C.3       1 UNK         0.0000 
      2 H2          3.1504    1.6270   -3.4220 H         1 UNK         0.0000 
      3 H3          4.2851    2.0343   -2.1104 H         1 UNK         0.0000 
      4 H4          4.7112    2.3946   -3.7945 H         1 UNK         0.0000 
      5 C5          4.8798    0.3147   -3.2811 C.3       1 UNK         0.0000 
      6 C6          6.3555    0.4075   -2.9099 C.3       1 UNK         0.0000 
      7 H7          6.8251   -0.5787   -2.9629 H         1 UNK         0.0000 
      8 H8          6.8688    1.0784   -3.6035 H         1 UNK         0.0000 
      9 H9          6.4730    0.7995   -1.8955 H         1 UNK         0.0000 
     10 C10         4.7194   -0.2734   -4.6802 C.3       1 UNK         0.0000 
     11 H11         5.1394   -1.2832   -4.7139 H         1 UNK         0.0000 
     12 H12         3.6709   -0.3099   -4.9774 H         1 UNK         0.0000 
     13 H13         5.2669    0.3501   -5.3931 H         1 UNK         0.0000 
     14 O14         4.3526   -0.6077   -2.2762 O.3       1 UNK         0.0000 
     15 C15         3.0504   -0.9405   -2.2575 C.2       1 UNK         0.0000 
     16 O16         2.2132   -0.5676   -3.0718 O.2       1 UNK         0.0000 
     17 N17         2.7841   -1.7642   -1.2138 N.am      1 UNK         0.0000 
     18 H18         3.5112   -1.9232   -0.5028 H         1 UNK         0.0000 
     19 C19         1.4088   -2.0862   -0.8691 C.3       1 UNK         0.0000 
     20 C20         0.8663   -0.8564   -0.1174 C.2       1 UNK         0.0000 
     21 N21         0.1390    0.0195   -0.8441 N.am      1 UNK         0.0000 
     22 H22        -0.0146   -0.1423   -1.8455 H         1 UNK         0.0000 
     23 O23         1.2095   -0.6316    1.0473 O.2       1 UNK         0.0000 
     24 H24         0.8482   -2.2317   -1.7982 H         1 UNK         0.0000 
     25 C25         1.3524   -3.3624   -0.0175 C.3       1 UNK         0.0000 
     26 H26         1.7839   -3.1513    0.9664 H         1 UNK         0.0000 
     27 H27         1.9656   -4.1238   -0.5081 H         1 UNK         0.0000 
     28 C28        -0.0858   -3.8028    0.0783 C.ar      1 UNK         0.0000 
     29 C29        -0.9410   -3.2165    1.0188 C.ar      1 UNK         0.0000 
     30 C30        -2.3197   -3.3512    0.8986 C.ar      1 UNK         0.0000 
     31 H31        -2.9949   -2.8244    1.5664 H         1 UNK         0.0000 
     32 H32        -0.5255   -2.5908    1.8041 H         1 UNK         0.0000 
     33 C33        -0.6319   -4.6456   -0.8952 C.ar      1 UNK         0.0000 
     34 H34         0.0247   -5.1332   -1.6111 H         1 UNK         0.0000 
     35 C35        -2.0136   -4.7917   -1.0266 C.ar      1 UNK         0.0000 
     36 H36        -2.4461   -5.3666   -1.8393 H         1 UNK         0.0000 
     37 C37        -2.8390   -4.0749   -0.1717 C.ar      1 UNK         0.0000 
     38 O38        -4.1951   -3.9264   -0.4758 O.3       1 UNK         0.0000 
     39 C39        -4.4317   -2.6256   -0.8858 C.ar      1 UNK         0.0000 
     40 C40        -5.4897   -1.9220   -0.3142 C.ar      1 UNK         0.0000 
     41 C41        -5.6033   -0.5581   -0.5686 C.ar      1 UNK         0.0000 
     42 H42        -6.3798    0.0256   -0.0838 H         1 UNK         0.0000 
     43 H43        -6.1576   -2.4270    0.3752 H         1 UNK         0.0000 
     44 C44        -3.5652   -2.0117   -1.7970 C.ar      1 UNK         0.0000 
     45 H45        -2.7680   -2.5825   -2.2603 H         1 UNK         0.0000 
     46 C46        -3.6676   -0.6496   -2.0246 C.ar      1 UNK         0.0000 
     47 H47        -2.9399   -0.1669   -2.6751 H         1 UNK         0.0000 
     48 C48        -4.6655    0.0940   -1.3777 C.ar      1 UNK         0.0000 
     49 C49        -4.6655    1.5776   -1.4498 C.2       1 UNK         0.0000 
     50 O50        -5.6682    2.2415   -1.2566 O.2       1 UNK         0.0000 
     51 C51        -3.3369    2.2647   -1.7476 C.3       1 UNK         0.0000 
     52 H52        -3.0940    2.1268   -2.8126 H         1 UNK         0.0000 
     53 H53        -3.4628    3.3331   -1.5643 H         1 UNK         0.0000 
     54 N54        -2.2499    1.7365   -0.9352 N.am      1 UNK         0.0000 
     55 H55        -2.3674    0.8518   -0.4567 H         1 UNK         0.0000 
     56 C56        -0.9945    2.1848   -1.1450 C.2       1 UNK         0.0000 
     57 O57        -0.7615    3.1649   -1.8471 O.2       1 UNK         0.0000 
     58 C58         0.1193    1.4158   -0.4152 C.3       1 UNK         0.0000 
     59 H59        -0.1171    1.4236    0.6543 H         1 UNK         0.0000 
     60 C60         1.4922    2.0743   -0.6528 C.3       1 UNK         0.0000 
     61 H61         1.5339    2.4759   -1.6670 H         1 UNK         0.0000 
     62 H62         2.2513    1.2873   -0.5722 H         1 UNK         0.0000 
     63 C63         1.8298    3.1623    0.3360 C.ar      1 UNK         0.0000 
     64 C64         1.8631    2.8730    1.7073 C.ar      1 UNK         0.0000 
     65 H65         1.6341    1.8660    2.0493 H         1 UNK         0.0000 
     66 C66         2.2053    3.8783    2.6032 C.ar      1 UNK         0.0000 
     67 H67         2.2417    3.6784    3.6696 H         1 UNK         0.0000 
     68 C68         2.5051    5.1450    2.1046 C.ar      1 UNK         0.0000 
     69 H69         2.7767    5.9636    2.7615 H         1 UNK         0.0000 
     70 C70         2.4523    5.3374    0.7272 C.ar      1 UNK         0.0000 
     71 H71         2.6850    6.3098    0.3003 H         1 UNK         0.0000 
     72 N72         2.1242    4.3763   -0.1460 N.ar      1 UNK         0.0000 
     73 C73         3.7437   -1.3444    3.1532 C.3       1 UNK         0.0000 
     74 H74         2.7655   -1.3285    2.6648 H         1 UNK         0.0000 
     75 H75         3.8528   -0.5127    3.8528 H         1 UNK         0.0000 
     76 H76         3.9149   -2.2897    3.6692 H         1 UNK         0.0000 
     77 S77         5.0060   -1.1990    1.8720 S.3       1 UNK         0.0000 
     78 C78         4.4212    0.3474    1.1441 C.3       1 UNK         0.0000 
     79 H79         3.3444    0.2573    0.9788 H         1 UNK         0.0000 
     80 H80         4.9540    0.4777    0.1999 H         1 UNK         0.0000 
     81 H81         4.6473    1.1692    1.8271 H         1 UNK         0.0000 
     82 O82         4.6623   -2.2905    0.8431 O.2       1 UNK         0.0000 
     83 C83        -0.8579    2.5438   -5.0607 C.3       1 UNK         0.0000 
     84 H84        -0.2335    3.1091   -5.7558 H         1 UNK         0.0000 
     85 H85        -1.2583    3.2024   -4.2891 H         1 UNK         0.0000 
     86 H86        -1.6597    2.0210   -5.5870 H         1 UNK         0.0000 
     87 S87         0.1640    1.3296   -4.2075 S.3       1 UNK         0.0000 
     88 C88         0.6453    0.3410   -5.6351 C.3       1 UNK         0.0000 
     89 H89        -0.2562    0.0112   -6.1556 H         1 UNK         0.0000 
     90 H90         1.2062   -0.5058   -5.2393 H         1 UNK         0.0000 
     91 H91         1.2796    0.9447   -6.2882 H         1 UNK         0.0000 
     92 O92        -0.8421    0.4490   -3.4383 O.2       1 UNK         0.0000 
@<TRIPOS>BOND
     1    1    2 1    
     2    1    4 1    
     3    1    5 1    
     4    1    3 1    
     5    5   10 1    
     6    5    6 1    
     7    5   14 1    
     8    6    7 1    
     9    6    8 1    
    10    6    9 1    
    11   10   12 1    
    12   10   11 1    
    13   10   13 1    
    14   14   15 1    
    15   15   16 2    
    16   15   17 am   BACKBONE|DICT|INTERRES
    17   17   18 1    
    18   17   19 1    
    19   19   24 1    
    20   19   20 1    
    21   19   25 1    
    22   20   21 am   BACKBONE|DICT|INTERRES
    23   20   23 2    
    24   21   22 1    
    25   21   58 1    
    26   25   27 1    
    27   25   26 1    
    28   25   28 1    
    29   28   33 ar   
    30   28   29 ar   
    31   29   30 ar   
    32   29   32 1    
    33   30   37 ar   
    34   30   31 1    
    35   33   34 1    
    36   33   35 ar   
    37   35   36 1    
    38   35   37 ar   
    39   37   38 1    
    40   38   39 1    
    41   39   44 ar   
    42   39   40 ar   
    43   40   41 ar   
    44   40   43 1    
    45   41   48 ar   
    46   41   42 1    
    47   44   45 1    
    48   44   46 ar   
    49   46   47 1    
    50   46   48 ar   
    51   48   49 1    
    52   49   51 1    
    53   49   50 2    
    54   51   52 1    
    55   51   53 1    
    56   51   54 1    
    57   54   56 am   BACKBONE|DICT|INTERRES
    58   54   55 1    
    59   56   57 2    
    60   56   58 1    
    61   58   59 1    
    62   58   60 1    
    63   60   62 1    
    64   60   61 1    
    65   60   63 1    
    66   63   72 ar   
    67   63   64 ar   
    68   64   65 1    
    69   64   66 ar   
    70   66   68 ar   
    71   66   67 1    
    72   68   70 ar   
    73   68   69 1    
    74   70   71 1    
    75   70   72 ar   
    76   73   74 1    
    77   73   77 1    
    78   73   75 1    
    79   73   76 1    
    80   77   78 1    
    81   77   82 2    
    82   78   79 1    
    83   78   80 1    
    84   78   81 1    
    85   83   86 1    
    86   83   84 1    
    87   83   85 1    
    88   83   87 1    
    89   87   88 1    
    90   87   92 2    
    91   88   89 1    
    92   88   91 1    
    93   88   90 1    
@<TRIPOS>SUBSTRUCTURE
     1 UNK         1 GROUP             0       ****    0 ROOT    
@<TRIPOS>MOLECULE
Cpd5-3000-MEC
92   93    1
SMALL
USER_CHARGES


@<TRIPOS>ATOM
      1 C1          4.6612    1.9459   -1.9934 C.3       1 UNK         0.0000 
      2 H2          5.2771    2.7371   -2.4310 H         1 UNK         0.0000 
      3 H3          3.7472    1.8440   -2.5785 H         1 UNK         0.0000 
      4 H4          4.4017    2.2427   -0.9715 H         1 UNK         0.0000 
      5 C5          5.4647    0.6477   -1.9744 C.3       1 UNK         0.0000 
      6 C6          6.7827    0.8563   -1.2379 C.3       1 UNK         0.0000 
      7 H7          7.3222   -0.0905   -1.1409 H         1 UNK         0.0000 
      8 H8          7.4077    1.5586   -1.7953 H         1 UNK         0.0000 
      9 H9          6.6053    1.2702   -0.2405 H         1 UNK         0.0000 
     10 C10         5.7154    0.0938   -3.3733 C.3       1 UNK         0.0000 
     11 H11         6.3296    0.8043   -3.9341 H         1 UNK         0.0000 
     12 H12         6.2577   -0.8543   -3.3103 H         1 UNK         0.0000 
     13 H13         4.7790   -0.0611   -3.9103 H         1 UNK         0.0000 
     14 O14         4.7879   -0.3597   -1.1532 O.3       1 UNK         0.0000 
     15 C15         3.5445   -0.7730   -1.4632 C.2       1 UNK         0.0000 
     16 O16         2.8874   -0.3764   -2.4187 O.2       1 UNK         0.0000 
     17 N17         3.1093   -1.7019   -0.5751 N.am      1 UNK         0.0000 
     18 H18         3.6448   -1.8658    0.2882 H         1 UNK         0.0000 
     19 C19         1.7084   -2.0870   -0.5859 C.3       1 UNK         0.0000 
     20 C20         0.9025   -0.9419    0.0509 C.2       1 UNK         0.0000 
     21 N21         0.3125   -0.0932   -0.8187 N.am      1 UNK         0.0000 
     22 H22         0.5606   -0.1610   -1.8016 H         1 UNK         0.0000 
     23 O23         0.8551   -0.7879    1.2731 O.2       1 UNK         0.0000 
     24 H24         1.3986   -2.2109   -1.6284 H         1 UNK         0.0000 
     25 C25         1.4992   -3.4074    0.1675 C.3       1 UNK         0.0000 
     26 H26         1.8164   -3.2780    1.2067 H         1 UNK         0.0000 
     27 H27         2.1378   -4.1641   -0.2983 H         1 UNK         0.0000 
     28 C28         0.0412   -3.7880    0.0833 C.ar      1 UNK         0.0000 
     29 C29        -0.8496   -3.4052    1.0925 C.ar      1 UNK         0.0000 
     30 C30        -2.2233   -3.4899    0.8922 C.ar      1 UNK         0.0000 
     31 H31        -2.9310   -3.1443    1.6398 H         1 UNK         0.0000 
     32 H32        -0.4582   -2.9792    2.0117 H         1 UNK         0.0000 
     33 C33        -0.4716   -4.3800   -1.0759 C.ar      1 UNK         0.0000 
     34 H34         0.2103   -4.7172   -1.8527 H         1 UNK         0.0000 
     35 C35        -1.8477   -4.4728   -1.2886 C.ar      1 UNK         0.0000 
     36 H36        -2.2502   -4.8591   -2.2197 H         1 UNK         0.0000 
     37 C37        -2.7054   -3.9544   -0.3274 C.ar      1 UNK         0.0000 
     38 O38        -4.0579   -3.7652   -0.6182 O.3       1 UNK         0.0000 
     39 C39        -4.3109   -2.4364   -0.9119 C.ar      1 UNK         0.0000 
     40 C40        -5.4080   -1.8132   -0.3188 C.ar      1 UNK         0.0000 
     41 C41        -5.5943   -0.4457   -0.5134 C.ar      1 UNK         0.0000 
     42 H42        -6.4193    0.0677   -0.0279 H         1 UNK         0.0000 
     43 H43        -6.0673   -2.3876    0.3235 H         1 UNK         0.0000 
     44 C44        -3.4608   -1.7282   -1.7668 C.ar      1 UNK         0.0000 
     45 H45        -2.6339   -2.2293   -2.2559 H         1 UNK         0.0000 
     46 C46        -3.6442   -0.3668   -1.9363 C.ar      1 UNK         0.0000 
     47 H47        -2.9585    0.1765   -2.5795 H         1 UNK         0.0000 
     48 C48        -4.6884    0.2956   -1.2802 C.ar      1 UNK         0.0000 
     49 C49        -4.7962    1.7789   -1.3345 C.2       1 UNK         0.0000 
     50 O50        -5.8422    2.3615   -1.1083 O.2       1 UNK         0.0000 
     51 C51        -3.5242    2.5807   -1.6406 C.3       1 UNK         0.0000 
     52 H52        -3.2617    2.4679   -2.6976 H         1 UNK         0.0000 
     53 H53        -3.7524    3.6322   -1.4496 H         1 UNK         0.0000 
     54 N54        -2.3976    2.1386   -0.8429 N.am      1 UNK         0.0000 
     55 H55        -2.5319    2.0543    0.1747 H         1 UNK         0.0000 
     56 C56        -1.2666    1.6481   -1.3772 C.2       1 UNK         0.0000 
     57 O57        -1.0383    1.5684   -2.5865 O.2       1 UNK         0.0000 
     58 C58        -0.2220    1.1780   -0.3663 C.3       1 UNK         0.0000 
     59 H59        -0.6836    1.0235    0.6126 H         1 UNK         0.0000 
     60 C60         0.9042    2.2271   -0.2330 C.3       1 UNK         0.0000 
     61 H61         1.3445    2.4003   -1.2194 H         1 UNK         0.0000 
     62 H62         1.6695    1.8010    0.4250 H         1 UNK         0.0000 
     63 C63         0.3769    3.5212    0.3289 C.ar      1 UNK         0.0000 
     64 C64         0.1159    3.6421    1.6978 C.ar      1 UNK         0.0000 
     65 H65         0.3420    2.8154    2.3658 H         1 UNK         0.0000 
     66 C66        -0.4399    4.8227    2.1773 C.ar      1 UNK         0.0000 
     67 H67        -0.6543    4.9423    3.2345 H         1 UNK         0.0000 
     68 C68        -0.7158    5.8466    1.2736 C.ar      1 UNK         0.0000 
     69 H69        -1.1493    6.7863    1.5971 H         1 UNK         0.0000 
     70 C70        -0.4180    5.6367   -0.0705 C.ar      1 UNK         0.0000 
     71 H71        -0.6159    6.4139   -0.8043 H         1 UNK         0.0000 
     72 N72         0.1139    4.5034   -0.5433 N.ar      1 UNK         0.0000 
     73 C73        -4.5597   -0.2480    2.8811 C.3       1 UNK         0.0000 
     74 H74        -4.4583    0.2727    3.8354 H         1 UNK         0.0000 
     75 H75        -4.7320   -1.3167    3.0279 H         1 UNK         0.0000 
     76 H76        -5.3716    0.1810    2.2933 H         1 UNK         0.0000 
     77 S77        -3.0462   -0.0151    1.9301 S.3       1 UNK         0.0000 
     78 C78        -1.8629   -0.5307    3.1894 C.3       1 UNK         0.0000 
     79 H79        -0.8693   -0.4785    2.7371 H         1 UNK         0.0000 
     80 H80        -2.0833   -1.5550    3.4991 H         1 UNK         0.0000 
     81 H81        -1.9535    0.1551    4.0348 H         1 UNK         0.0000 
     82 O82        -2.8706    1.5139    1.8409 O.2       1 UNK         0.0000 
     83 C83         3.8478    0.4115    2.0985 C.3       1 UNK         0.0000 
     84 H84         2.7746    0.2116    2.1464 H         1 UNK         0.0000 
     85 H85         4.1725    0.5167    1.0592 H         1 UNK         0.0000 
     86 H86         4.1029    1.2984    2.6824 H         1 UNK         0.0000 
     87 S87         4.6734   -1.0194    2.8292 S.3       1 UNK         0.0000 
     88 C88         6.3582   -0.6186    2.3265 C.3       1 UNK         0.0000 
     89 H89         6.6513    0.3393    2.7608 H         1 UNK         0.0000 
     90 H90         6.3776   -0.5826    1.2347 H         1 UNK         0.0000 
     91 H91         7.0071   -1.4128    2.6962 H         1 UNK         0.0000 
     92 O92         4.2802   -2.2192    1.9500 O.2       1 UNK         0.0000 
@<TRIPOS>BOND
     1    1    5 1    
     2    1    4 1    
     3    1    2 1    
     4    1    3 1    
     5    5    6 1    
     6    5   14 1    
     7    5   10 1    
     8    6    7 1    
     9    6    9 1    
    10    6    8 1    
    11   10   12 1    
    12   10   11 1    
    13   10   13 1    
    14   14   15 1    
    15   15   17 am   BACKBONE|DICT|INTERRES
    16   15   16 2    
    17   17   18 1    
    18   17   19 1    
    19   19   24 1    
    20   19   20 1    
    21   19   25 1    
    22   20   23 2    
    23   20   21 am   BACKBONE|DICT|INTERRES
    24   21   58 1    
    25   21   22 1    
    26   25   26 1    
    27   25   27 1    
    28   25   28 1    
    29   28   29 ar   
    30   28   33 ar   
    31   29   32 1    
    32   29   30 ar   
    33   30   31 1    
    34   30   37 ar   
    35   33   34 1    
    36   33   35 ar   
    37   35   37 ar   
    38   35   36 1    
    39   37   38 1    
    40   38   39 1    
    41   39   40 ar   
    42   39   44 ar   
    43   40   43 1    
    44   40   41 ar   
    45   41   42 1    
    46   41   48 ar   
    47   44   45 1    
    48   44   46 ar   
    49   46   48 ar   
    50   46   47 1    
    51   48   49 1    
    52   49   50 2    
    53   49   51 1    
    54   51   53 1    
    55   51   54 1    
    56   51   52 1    
    57   54   55 1    
    58   54   56 am   BACKBONE|DICT|INTERRES
    59   56   58 1    
    60   56   57 2    
    61   58   60 1    
    62   58   59 1    
    63   60   63 1    
    64   60   62 1    
    65   60   61 1    
    66   63   64 ar   
    67   63   72 ar   
    68   64   66 ar   
    69   64   65 1    
    70   66   67 1    
    71   66   68 ar   
    72   68   69 1    
    73   68   70 ar   
    74   70   71 1    
    75   70   72 ar   
    76   73   75 1    
    77   73   74 1    
    78   73   76 1    
    79   73   77 1    
    80   77   78 1    
    81   77   82 2    
    82   78   80 1    
    83   78   81 1    
    84   78   79 1    
    85   83   84 1    
    86   83   86 1    
    87   83   87 1    
    88   83   85 1    
    89   87   88 1    
    90   87   92 2    
    91   88   91 1    
    92   88   89 1    
    93   88   90 1    
@<TRIPOS>SUBSTRUCTURE
     1 UNK         1 GROUP             0       ****    0 ROOT    
@<TRIPOS>MOLECULE
Cpd5-3500-MRC
92   93    1
SMALL
USER_CHARGES


@<TRIPOS>ATOM
      1 C1          5.0867    1.7271   -1.9171 C.3       1 UNK         0.0000 
      2 H2          4.1062    1.7730   -2.3922 H         1 UNK         0.0000 
      3 H3          4.9909    2.0120   -0.8647 H         1 UNK         0.0000 
      4 H4          5.7507    2.4446   -2.4079 H         1 UNK         0.0000 
      5 C5          5.6937    0.3316   -2.0276 C.3       1 UNK         0.0000 
      6 C6          7.0747    0.2975   -1.3833 C.3       1 UNK         0.0000 
      7 H7          7.4985   -0.7101   -1.4370 H         1 UNK         0.0000 
      8 H8          7.7438    0.9836   -1.9090 H         1 UNK         0.0000 
      9 H9          7.0148    0.5981   -0.3336 H         1 UNK         0.0000 
     10 C10         5.7663   -0.1614   -3.4698 C.3       1 UNK         0.0000 
     11 H11         4.7903   -0.1204   -3.9535 H         1 UNK         0.0000 
     12 H12         6.4649    0.4697   -4.0269 H         1 UNK         0.0000 
     13 H13         6.1390   -1.1904   -3.4967 H         1 UNK         0.0000 
     14 O14         4.9329   -0.6120   -1.2082 O.3       1 UNK         0.0000 
     15 C15         3.6305   -0.8530   -1.4546 C.2       1 UNK         0.0000 
     16 O16         2.9816   -0.3702   -2.3743 O.2       1 UNK         0.0000 
     17 N17         3.1359   -1.7282   -0.5485 N.am      1 UNK         0.0000 
     18 H18         3.7188   -1.9794    0.2598 H         1 UNK         0.0000 
     19 C19         1.7295   -2.0774   -0.5699 C.3       1 UNK         0.0000 
     20 C20         0.9235   -0.9306    0.0649 C.2       1 UNK         0.0000 
     21 N21         0.3553   -0.0684   -0.8063 N.am      1 UNK         0.0000 
     22 H22         0.6169   -0.1133   -1.7863 H         1 UNK         0.0000 
     23 O23         0.8351   -0.8019    1.2863 O.2       1 UNK         0.0000 
     24 H24         1.4247   -2.1931   -1.6155 H         1 UNK         0.0000 
     25 C25         1.4934   -3.3978    0.1774 C.3       1 UNK         0.0000 
     26 H26         1.7936   -3.2741    1.2226 H         1 UNK         0.0000 
     27 H27         2.1326   -4.1600   -0.2790 H         1 UNK         0.0000 
     28 C28         0.0347   -3.7729    0.0790 C.ar      1 UNK         0.0000 
     29 C29        -0.8639   -3.4045    1.0869 C.ar      1 UNK         0.0000 
     30 C30        -2.2360   -3.5001    0.8797 C.ar      1 UNK         0.0000 
     31 H31        -2.9463   -3.1613    1.6273 H         1 UNK         0.0000 
     32 H32        -0.4849   -2.9779    2.0111 H         1 UNK         0.0000 
     33 C33        -0.4680   -4.3570   -1.0887 C.ar      1 UNK         0.0000 
     34 H34         0.2204   -4.6828   -1.8647 H         1 UNK         0.0000 
     35 C35        -1.8422   -4.4567   -1.3099 C.ar      1 UNK         0.0000 
     36 H36        -2.2369   -4.8366   -2.2470 H         1 UNK         0.0000 
     37 C37        -2.7084   -3.9563   -0.3464 C.ar      1 UNK         0.0000 
     38 O38        -4.0613   -3.7728   -0.6418 O.3       1 UNK         0.0000 
     39 C39        -4.3138   -2.4376   -0.9143 C.ar      1 UNK         0.0000 
     40 C40        -5.3645   -1.7998   -0.2563 C.ar      1 UNK         0.0000 
     41 C41        -5.5454   -0.4297   -0.4404 C.ar      1 UNK         0.0000 
     42 H42        -6.3326    0.0952    0.0931 H         1 UNK         0.0000 
     43 H43        -5.9923   -2.3668    0.4232 H         1 UNK         0.0000 
     44 C44        -3.4977   -1.7376   -1.8070 C.ar      1 UNK         0.0000 
     45 H45        -2.7024   -2.2493   -2.3365 H         1 UNK         0.0000 
     46 C46        -3.6742   -0.3727   -1.9664 C.ar      1 UNK         0.0000 
     47 H47        -3.0119    0.1652   -2.6382 H         1 UNK         0.0000 
     48 C48        -4.6790    0.2990   -1.2615 C.ar      1 UNK         0.0000 
     49 C49        -4.7935    1.7821   -1.3362 C.2       1 UNK         0.0000 
     50 O50        -5.8412    2.3621   -1.1179 O.2       1 UNK         0.0000 
     51 C51        -3.5285    2.5805   -1.6778 C.3       1 UNK         0.0000 
     52 H52        -3.2747    2.4417   -2.7339 H         1 UNK         0.0000 
     53 H53        -3.7570    3.6357   -1.5098 H         1 UNK         0.0000 
     54 N54        -2.4003    2.1563   -0.8748 N.am      1 UNK         0.0000 
     55 H55        -2.5668    2.1221    0.1374 H         1 UNK         0.0000 
     56 C56        -1.2770    1.6213   -1.3809 C.2       1 UNK         0.0000 
     57 O57        -1.0314    1.5132   -2.5850 O.2       1 UNK         0.0000 
     58 C58        -0.2756    1.1458   -0.3316 C.3       1 UNK         0.0000 
     59 H59        -0.7989    0.9082    0.5948 H         1 UNK         0.0000 
     60 C60         0.7557    2.2463   -0.0101 C.3       1 UNK         0.0000 
     61 H61         1.2283    2.5942   -0.9339 H         1 UNK         0.0000 
     62 H62         1.5261    1.7898    0.6212 H         1 UNK         0.0000 
     63 C63         0.1054    3.3872    0.7322 C.ar      1 UNK         0.0000 
     64 C64         0.1158    4.6907    0.2316 C.ar      1 UNK         0.0000 
     65 H65         0.6197    4.9076   -0.7047 H         1 UNK         0.0000 
     66 C66        -0.5323    5.6931    0.9484 C.ar      1 UNK         0.0000 
     67 H67        -0.5404    6.7145    0.5812 H         1 UNK         0.0000 
     68 C68        -1.1719    5.3597    2.1386 C.ar      1 UNK         0.0000 
     69 H69        -1.6933    6.1035    2.7307 H         1 UNK         0.0000 
     70 C70        -1.1312    4.0310    2.5573 C.ar      1 UNK         0.0000 
     71 H71        -1.6249    3.7295    3.4784 H         1 UNK         0.0000 
     72 N72        -0.5111    3.0620    1.8790 N.ar      1 UNK         0.0000 
     73 C73         6.4271   -3.4400   -0.4028 C.3       1 UNK         0.0000 
     74 H74         5.9314   -4.3944   -0.2119 H         1 UNK         0.0000 
     75 H75         7.4685   -3.5884   -0.6961 H         1 UNK         0.0000 
     76 H76         5.8969   -2.8728   -1.1693 H         1 UNK         0.0000 
     77 S77         6.3736   -2.4522    1.1067 S.3       1 UNK         0.0000 
     78 C78         7.1854   -3.6328    2.2022 C.3       1 UNK         0.0000 
     79 H79         6.6267   -4.5706    2.1809 H         1 UNK         0.0000 
     80 H80         7.1739   -3.2031    3.2041 H         1 UNK         0.0000 
     81 H81         8.2148   -3.7787    1.8697 H         1 UNK         0.0000 
     82 O82         4.8992   -2.4648    1.5475 O.2       1 UNK         0.0000 
     83 C83        -2.5896   -0.3697    2.2523 C.3       1 UNK         0.0000 
     84 H84        -3.1188   -0.6281    1.3277 H         1 UNK         0.0000 
     85 H85        -2.7376   -1.1344    3.0186 H         1 UNK         0.0000 
     86 H86        -1.5200   -0.2431    2.0708 H         1 UNK         0.0000 
     87 S87        -3.2857    1.1897    2.8515 S.3       1 UNK         0.0000 
     88 C88        -4.8838    0.5359    3.3767 C.3       1 UNK         0.0000 
     89 H89        -5.3255   -0.0142    2.5429 H         1 UNK         0.0000 
     90 H90        -5.5050    1.3908    3.6446 H         1 UNK         0.0000 
     91 H91        -4.7396   -0.1108    4.2440 H         1 UNK         0.0000 
     92 O92        -3.6125    2.0145    1.5970 O.2       1 UNK         0.0000 
@<TRIPOS>BOND
     1    1    5 1    
     2    1    3 1    
     3    1    2 1    
     4    1    4 1    
     5    5    6 1    
     6    5   14 1    
     7    5   10 1    
     8    6    7 1    
     9    6    9 1    
    10    6    8 1    
    11   10   13 1    
    12   10   11 1    
    13   10   12 1    
    14   14   15 1    
    15   15   17 am   BACKBONE|DICT|INTERRES
    16   15   16 2    
    17   17   18 1    
    18   17   19 1    
    19   19   24 1    
    20   19   20 1    
    21   19   25 1    
    22   20   23 2    
    23   20   21 am   BACKBONE|DICT|INTERRES
    24   21   58 1    
    25   21   22 1    
    26   25   26 1    
    27   25   27 1    
    28   25   28 1    
    29   28   29 ar   
    30   28   33 ar   
    31   29   32 1    
    32   29   30 ar   
    33   30   31 1    
    34   30   37 ar   
    35   33   34 1    
    36   33   35 ar   
    37   35   37 ar   
    38   35   36 1    
    39   37   38 1    
    40   38   39 1    
    41   39   40 ar   
    42   39   44 ar   
    43   40   43 1    
    44   40   41 ar   
    45   41   42 1    
    46   41   48 ar   
    47   44   45 1    
    48   44   46 ar   
    49   46   48 ar   
    50   46   47 1    
    51   48   49 1    
    52   49   50 2    
    53   49   51 1    
    54   51   53 1    
    55   51   54 1    
    56   51   52 1    
    57   54   55 1    
    58   54   56 am   BACKBONE|DICT|INTERRES
    59   56   58 1    
    60   56   57 2    
    61   58   60 1    
    62   58   59 1    
    63   60   63 1    
    64   60   62 1    
    65   60   61 1    
    66   63   72 ar   
    67   63   64 ar   
    68   64   66 ar   
    69   64   65 1    
    70   66   68 ar   
    71   66   67 1    
    72   68   70 ar   
    73   68   69 1    
    74   70   71 1    
    75   70   72 ar   
    76   73   74 1    
    77   73   77 1    
    78   73   75 1    
    79   73   76 1    
    80   77   82 2    
    81   77   78 1    
    82   78   79 1    
    83   78   80 1    
    84   78   81 1    
    85   83   87 1    
    86   83   85 1    
    87   83   84 1    
    88   83   86 1    
    89   87   88 1    
    90   87   92 2    
    91   88   90 1    
    92   88   91 1    
    93   88   89 1    
@<TRIPOS>SUBSTRUCTURE
     1 UNK         1 GROUP             0       ****    0 ROOT    
@<TRIPOS>MOLECULE
Cpd5-4000
92   93    1
SMALL
USER_CHARGES


@<TRIPOS>ATOM
      1 C1          5.0035    1.1928   -3.5460 C.3       1 UNK         0.0000 
      2 H2          3.9426    1.3775   -3.7250 H         1 UNK         0.0000 
      3 H3          5.3161    1.7081   -2.6323 H         1 UNK         0.0000 
      4 H4          5.5760    1.6083   -4.3804 H         1 UNK         0.0000 
      5 C5          5.2976   -0.2995   -3.4407 C.3       1 UNK         0.0000 
      6 C6          6.7697   -0.5345   -3.1249 C.3       1 UNK         0.0000 
      7 H7          7.0440   -0.0397   -2.1891 H         1 UNK         0.0000 
      8 H8          6.9753   -1.6044   -3.0325 H         1 UNK         0.0000 
      9 H9          7.3870   -0.1265   -3.9292 H         1 UNK         0.0000 
     10 C10         4.8899   -1.0619   -4.6974 C.3       1 UNK         0.0000 
     11 H11         3.8514   -0.8654   -4.9660 H         1 UNK         0.0000 
     12 H12         5.5322   -0.7482   -5.5251 H         1 UNK         0.0000 
     13 H13         5.0270   -2.1369   -4.5462 H         1 UNK         0.0000 
     14 O14         4.6242   -0.8698   -2.2677 O.3       1 UNK         0.0000 
     15 C15         3.2905   -0.9631   -2.2052 C.2       1 UNK         0.0000 
     16 O16         2.4970   -0.4536   -2.9907 O.2       1 UNK         0.0000 
     17 N17         2.9094   -1.6962   -1.1309 N.am      1 UNK         0.0000 
     18 H18         3.6204   -2.0170   -0.4867 H         1 UNK         0.0000 
     19 C19         1.5079   -1.9726   -0.8635 C.3       1 UNK         0.0000 
     20 C20         0.8876   -0.7927   -0.0873 C.2       1 UNK         0.0000 
     21 N21         0.4035    0.2215   -0.8685 N.am      1 UNK         0.0000 
     22 H22         0.7575    0.2348   -1.8249 H         1 UNK         0.0000 
     23 O23         0.8522   -0.7776    1.1353 O.2       1 UNK         0.0000 
     24 H24         1.0056   -2.0608   -1.8325 H         1 UNK         0.0000 
     25 C25         1.3644   -3.2917   -0.0891 C.3       1 UNK         0.0000 
     26 H26         1.7735   -3.1606    0.9172 H         1 UNK         0.0000 
     27 H27         1.9588   -4.0471   -0.6118 H         1 UNK         0.0000 
     28 C28        -0.0864   -3.7060   -0.0312 C.ar      1 UNK         0.0000 
     29 C29        -0.9134   -3.2822    1.0149 C.ar      1 UNK         0.0000 
     30 C30        -2.2937   -3.4411    0.9365 C.ar      1 UNK         0.0000 
     31 H31        -2.9471   -3.0427    1.7067 H         1 UNK         0.0000 
     32 H32        -0.4778   -2.7617    1.8616 H         1 UNK         0.0000 
     33 C33        -0.6578   -4.4148   -1.0936 C.ar      1 UNK         0.0000 
     34 H34        -0.0228   -4.7886   -1.8929 H         1 UNK         0.0000 
     35 C35        -2.0387   -4.5896   -1.1805 C.ar      1 UNK         0.0000 
     36 H36        -2.4905   -5.0825   -2.0353 H         1 UNK         0.0000 
     37 C37        -2.8454   -4.0350   -0.1941 C.ar      1 UNK         0.0000 
     38 O38        -4.2276   -3.9307   -0.4017 O.3       1 UNK         0.0000 
     39 C39        -4.4860   -2.6279   -0.8161 C.ar      1 UNK         0.0000 
     40 C40        -5.1107   -1.7406    0.0555 C.ar      1 UNK         0.0000 
     41 C41        -5.1444   -0.3864   -0.2721 C.ar      1 UNK         0.0000 
     42 H42        -5.5716    0.3338    0.4190 H         1 UNK         0.0000 
     43 H43        -5.4948   -2.1015    1.0037 H         1 UNK         0.0000 
     44 C44        -4.0050   -2.2051   -2.0560 C.ar      1 UNK         0.0000 
     45 H45        -3.5632   -2.9233   -2.7376 H         1 UNK         0.0000 
     46 C46        -4.0137   -0.8530   -2.3591 C.ar      1 UNK         0.0000 
     47 H47        -3.5905   -0.5234   -3.3034 H         1 UNK         0.0000 
     48 C48        -4.5447    0.0706   -1.4494 C.ar      1 UNK         0.0000 
     49 C49        -4.3838    1.5355   -1.6696 C.2       1 UNK         0.0000 
     50 O50        -5.1724    2.3507   -1.2299 O.2       1 UNK         0.0000 
     51 C51        -3.1272    1.9874   -2.4245 C.3       1 UNK         0.0000 
     52 H52        -3.1888    1.6794   -3.4712 H         1 UNK         0.0000 
     53 H53        -3.0890    3.0762   -2.3807 H         1 UNK         0.0000 
     54 N54        -1.9082    1.4462   -1.8457 N.am      1 UNK         0.0000 
     55 H55        -1.5413    0.5610   -2.1684 H         1 UNK         0.0000 
     56 C56        -1.3136    2.0607   -0.7996 C.2       1 UNK         0.0000 
     57 O57        -1.7665    3.0846   -0.2929 O.2       1 UNK         0.0000 
     58 C58        -0.0067    1.4764   -0.2569 C.3       1 UNK         0.0000 
     59 H59        -0.1907    1.2601    0.7997 H         1 UNK         0.0000 
     60 C60         1.0936    2.5552   -0.3435 C.3       1 UNK         0.0000 
     61 H61         0.6976    3.4760    0.0900 H         1 UNK         0.0000 
     62 H62         1.3351    2.7384   -1.3966 H         1 UNK         0.0000 
     63 C63         2.3219    2.1204    0.4106 C.ar      1 UNK         0.0000 
     64 C64         3.4072    1.5523   -0.2580 C.ar      1 UNK         0.0000 
     65 H65         3.3858    1.4792   -1.3409 H         1 UNK         0.0000 
     66 C66         4.4934    1.0891    0.4787 C.ar      1 UNK         0.0000 
     67 H67         5.3411    0.6295   -0.0222 H         1 UNK         0.0000 
     68 C68         4.4613    1.2214    1.8632 C.ar      1 UNK         0.0000 
     69 H69         5.2799    0.8779    2.4856 H         1 UNK         0.0000 
     70 C70         3.3415    1.8191    2.4426 C.ar      1 UNK         0.0000 
     71 H71         3.2876    1.9490    3.5207 H         1 UNK         0.0000 
     72 N72         2.2912    2.2578    1.7438 N.ar      1 UNK         0.0000 
     73 C73        -6.2197    6.0445   17.4089 C.3       1 UNK         0.0000 
     74 H74        -5.2959    5.6481   17.8344 H         1 UNK         0.0000 
     75 H75        -6.8687    6.4116   18.2043 H         1 UNK         0.0000 
     76 H76        -6.0124    6.8390   16.6887 H         1 UNK         0.0000 
     77 S77        -7.1054    4.7150   16.5666 S.3       1 UNK         0.0000 
     78 C78        -5.8749    4.3913   15.2847 C.3       1 UNK         0.0000 
     79 H79        -5.6948    5.3148   14.7303 H         1 UNK         0.0000 
     80 H80        -6.2879    3.6264   14.6267 H         1 UNK         0.0000 
     81 H81        -4.9574    4.0265   15.7507 H         1 UNK         0.0000 
     82 O82        -8.2818    5.3842   15.8546 O.2       1 UNK         0.0000 
     83 C83        -5.8915  -17.1130   24.6154 C.3       1 UNK         0.0000 
     84 H84        -5.9448  -18.0062   23.9925 H         1 UNK         0.0000 
     85 H85        -4.8792  -16.7028   24.6084 H         1 UNK         0.0000 
     86 H86        -6.6178  -16.3744   24.2709 H         1 UNK         0.0000 
     87 S87        -6.3022  -17.6122   26.3018 S.3       1 UNK         0.0000 
     88 C88        -6.0309  -16.0106   27.0913 C.3       1 UNK         0.0000 
     89 H89        -5.0089  -15.6858   26.8842 H         1 UNK         0.0000 
     90 H90        -6.1761  -16.1508   28.1628 H         1 UNK         0.0000 
     91 H91        -6.7579  -15.2923   26.7076 H         1 UNK         0.0000 
     92 O92        -5.1493  -18.5047   26.7635 O.2       1 UNK         0.0000 
@<TRIPOS>BOND
     1    1    5 1    
     2    1    2 1    
     3    1    3 1    
     4    1    4 1    
     5    5   14 1    
     6    5   10 1    
     7    5    6 1    
     8    6    8 1    
     9    6    7 1    
    10    6    9 1    
    11   10   13 1    
    12   10   11 1    
    13   10   12 1    
    14   14   15 1    
    15   15   17 am   BACKBONE|DICT|INTERRES
    16   15   16 2    
    17   17   19 1    
    18   17   18 1    
    19   19   20 1    
    20   19   25 1    
    21   19   24 1    
    22   20   21 am   BACKBONE|DICT|INTERRES
    23   20   23 2    
    24   21   22 1    
    25   21   58 1    
    26   25   28 1    
    27   25   26 1    
    28   25   27 1    
    29   28   29 ar   
    30   28   33 ar   
    31   29   30 ar   
    32   29   32 1    
    33   30   31 1    
    34   30   37 ar   
    35   33   35 ar   
    36   33   34 1    
    37   35   37 ar   
    38   35   36 1    
    39   37   38 1    
    40   38   39 1    
    41   39   40 ar   
    42   39   44 ar   
    43   40   43 1    
    44   40   41 ar   
    45   41   42 1    
    46   41   48 ar   
    47   44   45 1    
    48   44   46 ar   
    49   46   47 1    
    50   46   48 ar   
    51   48   49 1    
    52   49   50 2    
    53   49   51 1    
    54   51   52 1    
    55   51   53 1    
    56   51   54 1    
    57   54   55 1    
    58   54   56 am   BACKBONE|DICT|INTERRES
    59   56   57 2    
    60   56   58 1    
    61   58   59 1    
    62   58   60 1    
    63   60   62 1    
    64   60   61 1    
    65   60   63 1    
    66   63   64 ar   
    67   63   72 ar   
    68   64   65 1    
    69   64   66 ar   
    70   66   67 1    
    71   66   68 ar   
    72   68   70 ar   
    73   68   69 1    
    74   70   72 ar   
    75   70   71 1    
    76   73   75 1    
    77   73   77 1    
    78   73   74 1    
    79   73   76 1    
    80   77   82 2    
    81   77   78 1    
    82   78   80 1    
    83   78   79 1    
    84   78   81 1    
    85   83   84 1    
    86   83   86 1    
    87   83   85 1    
    88   83   87 1    
    89   87   88 1    
    90   87   92 2    
    91   88   91 1    
    92   88   89 1    
    93   88   90 1    
@<TRIPOS>SUBSTRUCTURE
     1 UNK         1 GROUP             0       ****    0 ROOT    
@<TRIPOS>MOLECULE
Cpd5-4500
92   93    1
SMALL
USER_CHARGES


@<TRIPOS>ATOM
      1 C1          4.6359    2.0593   -1.6662 C.3       1 UNK         0.0000 
      2 H2          5.2013    2.9000   -2.0796 H         1 UNK         0.0000 
      3 H3          3.6815    1.9830   -2.1891 H         1 UNK         0.0000 
      4 H4          4.4503    2.2605   -0.6055 H         1 UNK         0.0000 
      5 C5          5.4544    0.7790   -1.8178 C.3       1 UNK         0.0000 
      6 C6          6.8000    0.9190   -1.1137 C.3       1 UNK         0.0000 
      7 H7          7.3568   -0.0204   -1.1672 H         1 UNK         0.0000 
      8 H8          7.3900    1.7070   -1.5895 H         1 UNK         0.0000 
      9 H9          6.6544    1.1786   -0.0607 H         1 UNK         0.0000 
     10 C10         5.6578    0.3907   -3.2812 C.3       1 UNK         0.0000 
     11 H11         4.7037    0.2993   -3.8014 H         1 UNK         0.0000 
     12 H12         6.2626    1.1572   -3.7758 H         1 UNK         0.0000 
     13 H13         6.1941   -0.5613   -3.3424 H         1 UNK         0.0000 
     14 O14         4.8227   -0.3101   -1.0858 O.3       1 UNK         0.0000 
     15 C15         3.5816   -0.7144   -1.4116 C.2       1 UNK         0.0000 
     16 O16         2.9141   -0.2744   -2.3369 O.2       1 UNK         0.0000 
     17 N17         3.1678   -1.7070   -0.5789 N.am      1 UNK         0.0000 
     18 H18         3.6611   -1.8328    0.3144 H         1 UNK         0.0000 
     19 C19         1.7647   -2.0734   -0.6067 C.3       1 UNK         0.0000 
     20 C20         0.9517   -0.9504    0.0553 C.2       1 UNK         0.0000 
     21 N21         0.3528   -0.0813   -0.7765 N.am      1 UNK         0.0000 
     22 H22         0.5761   -0.0778   -1.7684 H         1 UNK         0.0000 
     23 O23         0.8789   -0.8472    1.2849 O.2       1 UNK         0.0000 
     24 H24         1.4612   -2.1659   -1.6547 H         1 UNK         0.0000 
     25 C25         1.5349   -3.4065    0.1210 C.3       1 UNK         0.0000 
     26 H26         1.8700   -3.2958    1.1575 H         1 UNK         0.0000 
     27 H27         2.1576   -4.1660   -0.3630 H         1 UNK         0.0000 
     28 C28         0.0695   -3.7660    0.0498 C.ar      1 UNK         0.0000 
     29 C29        -0.8059   -3.3818    1.0711 C.ar      1 UNK         0.0000 
     30 C30        -2.1832   -3.4599    0.8901 C.ar      1 UNK         0.0000 
     31 H31        -2.8735   -3.1103    1.6512 H         1 UNK         0.0000 
     32 H32        -0.4010   -2.9509    1.9817 H         1 UNK         0.0000 
     33 C33        -0.4682   -4.3510   -1.1024 C.ar      1 UNK         0.0000 
     34 H34         0.2004   -4.6945   -1.8881 H         1 UNK         0.0000 
     35 C35        -1.8470   -4.4397   -1.2936 C.ar      1 UNK         0.0000 
     36 H36        -2.2687   -4.8290   -2.2151 H         1 UNK         0.0000 
     37 C37        -2.6909   -3.9214   -0.3194 C.ar      1 UNK         0.0000 
     38 O38        -4.0473   -3.7334   -0.5846 O.3       1 UNK         0.0000 
     39 C39        -4.3093   -2.4118   -0.8976 C.ar      1 UNK         0.0000 
     40 C40        -5.4065   -1.7809   -0.3099 C.ar      1 UNK         0.0000 
     41 C41        -5.5985   -0.4150   -0.5159 C.ar      1 UNK         0.0000 
     42 H42        -6.4173    0.1079   -0.0288 H         1 UNK         0.0000 
     43 H43        -6.0626   -2.3552    0.3362 H         1 UNK         0.0000 
     44 C44        -3.4688   -1.7082   -1.7644 C.ar      1 UNK         0.0000 
     45 H45        -2.6351   -2.2071   -2.2447 H         1 UNK         0.0000 
     46 C46        -3.6657   -0.3508   -1.9588 C.ar      1 UNK         0.0000 
     47 H47        -2.9838    0.1834   -2.6130 H         1 UNK         0.0000 
     48 C48        -4.7009    0.3205   -1.2999 C.ar      1 UNK         0.0000 
     49 C49        -4.8053    1.8087   -1.3737 C.2       1 UNK         0.0000 
     50 O50        -5.8445    2.3925   -1.1364 O.2       1 UNK         0.0000 
     51 C51        -3.5279    2.5972   -1.7135 C.3       1 UNK         0.0000 
     52 H52        -3.2395    2.4345   -2.7576 H         1 UNK         0.0000 
     53 H53        -3.7625    3.6543   -1.5688 H         1 UNK         0.0000 
     54 N54        -2.4216    2.1877   -0.8720 N.am      1 UNK         0.0000 
     55 H55        -2.5634    2.2947    0.1370 H         1 UNK         0.0000 
     56 C56        -1.3287    1.5528   -1.3282 C.2       1 UNK         0.0000 
     57 O57        -1.0745    1.3665   -2.5194 O.2       1 UNK         0.0000 
     58 C58        -0.3882    1.0398   -0.2381 C.3       1 UNK         0.0000 
     59 H59        -0.9668    0.6545    0.6074 H         1 UNK         0.0000 
     60 C60         0.5346    2.1677    0.3062 C.3       1 UNK         0.0000 
     61 H61         0.7067    2.9263   -0.4623 H         1 UNK         0.0000 
     62 H62         1.4919    1.7018    0.5627 H         1 UNK         0.0000 
     63 C63        -0.0541    2.8012    1.5415 C.ar      1 UNK         0.0000 
     64 C64         0.0025    2.1020    2.7560 C.ar      1 UNK         0.0000 
     65 H65         0.4660    1.1174    2.7669 H         1 UNK         0.0000 
     66 C66        -0.5484    2.6814    3.8910 C.ar      1 UNK         0.0000 
     67 H67        -0.5026    2.1744    4.8525 H         1 UNK         0.0000 
     68 C68        -1.1621    3.9276    3.7732 C.ar      1 UNK         0.0000 
     69 H69        -1.6130    4.4214    4.6275 H         1 UNK         0.0000 
     70 C70        -1.1854    4.5318    2.5204 C.ar      1 UNK         0.0000 
     71 H71        -1.6664    5.4975    2.3853 H         1 UNK         0.0000 
     72 N72        -0.6372    3.9962    1.4237 N.ar      1 UNK         0.0000 
     73 C73        -4.0098    1.2607    4.0596 C.3       1 UNK         0.0000 
     74 H74        -2.9458    1.2770    4.3147 H         1 UNK         0.0000 
     75 H75        -4.5142    0.3918    4.4915 H         1 UNK         0.0000 
     76 H76        -4.4895    2.1804    4.3999 H         1 UNK         0.0000 
     77 S77        -4.1547    1.2204    2.2560 S.3       1 UNK         0.0000 
     78 C78        -3.1958   -0.2922    1.9753 C.3       1 UNK         0.0000 
     79 H79        -3.7208   -1.1358    2.4350 H         1 UNK         0.0000 
     80 H80        -2.1938   -0.1623    2.4001 H         1 UNK         0.0000 
     81 H81        -3.1347   -0.4450    0.8928 H         1 UNK         0.0000 
     82 O82        -3.2618    2.3589    1.7672 O.2       1 UNK         0.0000 
     83 C83         4.9697    0.2083    3.5102 C.3       1 UNK         0.0000 
     84 H84         4.7252    1.1673    3.9757 H         1 UNK         0.0000 
     85 H85         5.7875    0.3331    2.7988 H         1 UNK         0.0000 
     86 H86         5.2384   -0.5412    4.2587 H         1 UNK         0.0000 
     87 S87         3.5452   -0.3919    2.5703 S.3       1 UNK         0.0000 
     88 C88         2.4299   -0.6423    3.9697 C.3       1 UNK         0.0000 
     89 H89         2.9023   -1.3464    4.6594 H         1 UNK         0.0000 
     90 H90         1.5151   -1.0613    3.5473 H         1 UNK         0.0000 
     91 H91         2.2300    0.3163    4.4568 H         1 UNK         0.0000 
     92 O92         3.9454   -1.8004    2.1290 O.2       1 UNK         0.0000 
@<TRIPOS>BOND
     1    1    5 1    
     2    1    4 1    
     3    1    2 1    
     4    1    3 1    
     5    5    6 1    
     6    5   14 1    
     7    5   10 1    
     8    6    7 1    
     9    6    9 1    
    10    6    8 1    
    11   10   13 1    
    12   10   11 1    
    13   10   12 1    
    14   14   15 1    
    15   15   17 am   BACKBONE|DICT|INTERRES
    16   15   16 2    
    17   17   19 1    
    18   17   18 1    
    19   19   24 1    
    20   19   25 1    
    21   19   20 1    
    22   20   23 2    
    23   20   21 am   BACKBONE|DICT|INTERRES
    24   21   22 1    
    25   21   58 1    
    26   25   28 1    
    27   25   26 1    
    28   25   27 1    
    29   28   29 ar   
    30   28   33 ar   
    31   29   32 1    
    32   29   30 ar   
    33   30   31 1    
    34   30   37 ar   
    35   33   34 1    
    36   33   35 ar   
    37   35   37 ar   
    38   35   36 1    
    39   37   38 1    
    40   38   39 1    
    41   39   40 ar   
    42   39   44 ar   
    43   40   43 1    
    44   40   41 ar   
    45   41   42 1    
    46   41   48 ar   
    47   44   45 1    
    48   44   46 ar   
    49   46   48 ar   
    50   46   47 1    
    51   48   49 1    
    52   49   50 2    
    53   49   51 1    
    54   51   54 1    
    55   51   52 1    
    56   51   53 1    
    57   54   55 1    
    58   54   56 am   BACKBONE|DICT|INTERRES
    59   56   58 1    
    60   56   57 2    
    61   58   59 1    
    62   58   60 1    
    63   60   62 1    
    64   60   63 1    
    65   60   61 1    
    66   63   64 ar   
    67   63   72 ar   
    68   64   65 1    
    69   64   66 ar   
    70   66   67 1    
    71   66   68 ar   
    72   68   69 1    
    73   68   70 ar   
    74   70   71 1    
    75   70   72 ar   
    76   73   74 1    
    77   73   75 1    
    78   73   76 1    
    79   73   77 1    
    80   77   78 1    
    81   77   82 2    
    82   78   80 1    
    83   78   79 1    
    84   78   81 1    
    85   83   86 1    
    86   83   84 1    
    87   83   85 1    
    88   83   87 1    
    89   87   92 2    
    90   87   88 1    
    91   88   89 1    
    92   88   90 1    
    93   88   91 1    
@<TRIPOS>SUBSTRUCTURE
     1 UNK         1 GROUP             0       ****    0 ROOT    
@<TRIPOS>MOLECULE
Cpd5-5000
92   93    1
SMALL
USER_CHARGES


@<TRIPOS>ATOM
      1 C1          4.9029    1.9748   -1.2793 C.3       1 UNK         0.0000 
      2 H2          5.5539    2.7898   -1.6086 H         1 UNK         0.0000 
      3 H3          3.9977    1.9785   -1.8876 H         1 UNK         0.0000 
      4 H4          4.6325    2.1539   -0.2333 H         1 UNK         0.0000 
      5 C5          5.6553    0.6527   -1.4079 C.3       1 UNK         0.0000 
      6 C6          6.9499    0.6953   -0.6039 C.3       1 UNK         0.0000 
      7 H7          7.4595   -0.2711   -0.6500 H         1 UNK         0.0000 
      8 H8          7.6133    1.4617   -1.0131 H         1 UNK         0.0000 
      9 H9          6.7458    0.9359    0.4435 H         1 UNK         0.0000 
     10 C10         5.9419    0.2835   -2.8603 C.3       1 UNK         0.0000 
     11 H11         5.0262    0.2628   -3.4518 H         1 UNK         0.0000 
     12 H12         6.6232    1.0242   -3.2890 H         1 UNK         0.0000 
     13 H13         6.4257   -0.6966   -2.9095 H         1 UNK         0.0000 
     14 O14         4.9047   -0.4174   -0.7529 O.3       1 UNK         0.0000 
     15 C15         3.6640   -0.7406   -1.1565 C.2       1 UNK         0.0000 
     16 O16         3.0752   -0.2423   -2.1092 O.2       1 UNK         0.0000 
     17 N17         3.1459   -1.7169   -0.3691 N.am      1 UNK         0.0000 
     18 H18         3.6182   -1.9477    0.5149 H         1 UNK         0.0000 
     19 C19         1.7447   -2.0751   -0.4988 C.3       1 UNK         0.0000 
     20 C20         0.9032   -0.9242    0.0791 C.2       1 UNK         0.0000 
     21 N21         0.3348   -0.0988   -0.8271 N.am      1 UNK         0.0000 
     22 H22         0.6249   -0.1861   -1.7962 H         1 UNK         0.0000 
     23 O23         0.8131   -0.7475    1.2958 O.2       1 UNK         0.0000 
     24 H24         1.5135   -2.1963   -1.5625 H         1 UNK         0.0000 
     25 C25         1.4747   -3.3920    0.2423 C.3       1 UNK         0.0000 
     26 H26         1.7459   -3.2626    1.2950 H         1 UNK         0.0000 
     27 H27         2.1298   -4.1560   -0.1881 H         1 UNK         0.0000 
     28 C28         0.0209   -3.7670    0.0988 C.ar      1 UNK         0.0000 
     29 C29        -0.8981   -3.4414    1.1023 C.ar      1 UNK         0.0000 
     30 C30        -2.2654   -3.5494    0.8698 C.ar      1 UNK         0.0000 
     31 H31        -2.9946   -3.2518    1.6165 H         1 UNK         0.0000 
     32 H32        -0.5391   -3.0439    2.0479 H         1 UNK         0.0000 
     33 C33        -0.4553   -4.3161   -1.0968 C.ar      1 UNK         0.0000 
     34 H34         0.2498   -4.6110   -1.8699 H         1 UNK         0.0000 
     35 C35        -1.8241   -4.4225   -1.3453 C.ar      1 UNK         0.0000 
     36 H36        -2.1985   -4.7763   -2.3007 H         1 UNK         0.0000 
     37 C37        -2.7121   -3.9669   -0.3790 C.ar      1 UNK         0.0000 
     38 O38        -4.0628   -3.7874   -0.6888 O.3       1 UNK         0.0000 
     39 C39        -4.3163   -2.4456   -0.9309 C.ar      1 UNK         0.0000 
     40 C40        -5.3421   -1.8104   -0.2332 C.ar      1 UNK         0.0000 
     41 C41        -5.5211   -0.4362   -0.3938 C.ar      1 UNK         0.0000 
     42 H42        -6.2920    0.0837    0.1676 H         1 UNK         0.0000 
     43 H43        -5.9549   -2.3829    0.4552 H         1 UNK         0.0000 
     44 C44        -3.5182   -1.7376   -1.8338 C.ar      1 UNK         0.0000 
     45 H45        -2.7416   -2.2472   -2.3920 H         1 UNK         0.0000 
     46 C46        -3.6873   -0.3690   -1.9663 C.ar      1 UNK         0.0000 
     47 H47        -3.0385    0.1757   -2.6456 H         1 UNK         0.0000 
     48 C48        -4.6707    0.2983   -1.2269 C.ar      1 UNK         0.0000 
     49 C49        -4.7871    1.7822   -1.2984 C.2       1 UNK         0.0000 
     50 O50        -5.8390    2.3584   -1.0924 O.2       1 UNK         0.0000 
     51 C51        -3.5247    2.5816   -1.6451 C.3       1 UNK         0.0000 
     52 H52        -3.2976    2.4671   -2.7101 H         1 UNK         0.0000 
     53 H53        -3.7457    3.6332   -1.4472 H         1 UNK         0.0000 
     54 N54        -2.3729    2.1452   -0.8825 N.am      1 UNK         0.0000 
     55 H55        -2.4978    2.1482    0.1330 H         1 UNK         0.0000 
     56 C56        -1.2622    1.6214   -1.4266 C.2       1 UNK         0.0000 
     57 O57        -1.0677    1.4961   -2.6380 O.2       1 UNK         0.0000 
     58 C58        -0.1947    1.1904   -0.4234 C.3       1 UNK         0.0000 
     59 H59        -0.6272    1.0792    0.5717 H         1 UNK         0.0000 
     60 C60         0.9240    2.2496   -0.3496 C.3       1 UNK         0.0000 
     61 H61         1.3641    2.3778   -1.3433 H         1 UNK         0.0000 
     62 H62         1.6983    1.8631    0.3231 H         1 UNK         0.0000 
     63 C63         0.3882    3.5548    0.1805 C.ar      1 UNK         0.0000 
     64 C64         0.3660    4.7109   -0.6020 C.ar      1 UNK         0.0000 
     65 H65         0.7748    4.6928   -1.6072 H         1 UNK         0.0000 
     66 C66        -0.1918    5.8721   -0.0728 C.ar      1 UNK         0.0000 
     67 H67        -0.2233    6.7844   -0.6599 H         1 UNK         0.0000 
     68 C68        -0.7103    5.8386    1.2181 C.ar      1 UNK         0.0000 
     69 H69        -1.1576    6.7152    1.6729 H         1 UNK         0.0000 
     70 C70        -0.6430    4.6379    1.9235 C.ar      1 UNK         0.0000 
     71 H71        -1.0386    4.5714    2.9343 H         1 UNK         0.0000 
     72 N72        -0.1100    3.5187    1.4258 N.ar      1 UNK         0.0000 
     73 C73         2.5115   -1.5657    4.0439 C.3       1 UNK         0.0000 
     74 H74         1.7641   -1.5280    3.2469 H         1 UNK         0.0000 
     75 H75         2.3533   -0.7700    4.7753 H         1 UNK         0.0000 
     76 H76         2.5135   -2.5351    4.5434 H         1 UNK         0.0000 
     77 S77         4.1390   -1.3501    3.2954 S.3       1 UNK         0.0000 
     78 C78         3.8204    0.2250    2.4697 C.3       1 UNK         0.0000 
     79 H79         3.7666    1.0116    3.2251 H         1 UNK         0.0000 
     80 H80         2.8828    0.1462    1.9132 H         1 UNK         0.0000 
     81 H81         4.6608    0.4015    1.7960 H         1 UNK         0.0000 
     82 O82         4.2092   -2.3980    2.1704 O.2       1 UNK         0.0000 
     83 C83        -3.2824    1.3691    4.0380 C.3       1 UNK         0.0000 
     84 H84        -3.3038    0.4969    4.6942 H         1 UNK         0.0000 
     85 H85        -3.9138    2.1591    4.4453 H         1 UNK         0.0000 
     86 H86        -2.2619    1.7303    3.8912 H         1 UNK         0.0000 
     87 S87        -3.9648    0.9162    2.4303 S.3       1 UNK         0.0000 
     88 C88        -2.7200   -0.3110    1.9794 C.3       1 UNK         0.0000 
     89 H89        -2.8931   -0.5872    0.9343 H         1 UNK         0.0000 
     90 H90        -2.8530   -1.1822    2.6239 H         1 UNK         0.0000 
     91 H91        -1.7188    0.1075    2.1114 H         1 UNK         0.0000 
     92 O92        -3.6982    2.1318    1.5294 O.2       1 UNK         0.0000 
@<TRIPOS>BOND
     1    1    4 1    
     2    1    2 1    
     3    1    3 1    
     4    1    5 1    
     5    5   14 1    
     6    5    6 1    
     7    5   10 1    
     8    6    9 1    
     9    6    7 1    
    10    6    8 1    
    11   10   11 1    
    12   10   12 1    
    13   10   13 1    
    14   14   15 1    
    15   15   17 am   BACKBONE|DICT|INTERRES
    16   15   16 2    
    17   17   18 1    
    18   17   19 1    
    19   19   24 1    
    20   19   20 1    
    21   19   25 1    
    22   20   23 2    
    23   20   21 am   BACKBONE|DICT|INTERRES
    24   21   58 1    
    25   21   22 1    
    26   25   26 1    
    27   25   27 1    
    28   25   28 1    
    29   28   29 ar   
    30   28   33 ar   
    31   29   32 1    
    32   29   30 ar   
    33   30   31 1    
    34   30   37 ar   
    35   33   34 1    
    36   33   35 ar   
    37   35   37 ar   
    38   35   36 1    
    39   37   38 1    
    40   38   39 1    
    41   39   40 ar   
    42   39   44 ar   
    43   40   43 1    
    44   40   41 ar   
    45   41   42 1    
    46   41   48 ar   
    47   44   45 1    
    48   44   46 ar   
    49   46   48 ar   
    50   46   47 1    
    51   48   49 1    
    52   49   50 2    
    53   49   51 1    
    54   51   53 1    
    55   51   54 1    
    56   51   52 1    
    57   54   55 1    
    58   54   56 am   BACKBONE|DICT|INTERRES
    59   56   58 1    
    60   56   57 2    
    61   58   60 1    
    62   58   59 1    
    63   60   63 1    
    64   60   62 1    
    65   60   61 1    
    66   63   72 ar   
    67   63   64 ar   
    68   64   66 ar   
    69   64   65 1    
    70   66   68 ar   
    71   66   67 1    
    72   68   69 1    
    73   68   70 ar   
    74   70   71 1    
    75   70   72 ar   
    76   73   76 1    
    77   73   75 1    
    78   73   74 1    
    79   73   77 1    
    80   77   78 1    
    81   77   82 2    
    82   78   79 1    
    83   78   80 1    
    84   78   81 1    
    85   83   85 1    
    86   83   84 1    
    87   83   86 1    
    88   83   87 1    
    89   87   88 1    
    90   87   92 2    
    91   88   91 1    
    92   88   90 1    
    93   88   89 1    
@<TRIPOS>SUBSTRUCTURE
     1 UNK         1 GROUP             0       ****    0 ROOT    
