@<TRIPOS>MOLECULE
Cpd5-500-MEC
72   75    1
SMALL
USER_CHARGES


@<TRIPOS>ATOM
      1 C1         -7.1567    0.1867    2.1502 C.3       1 UNK         0.0000 
      2 H2         -8.1907    0.0922    2.4952 H         1 UNK         0.0000 
      3 H3         -6.5925   -0.6836    2.4866 H         1 UNK         0.0000 
      4 H4         -6.7278    1.0892    2.5961 H         1 UNK         0.0000 
      5 C5         -7.1489    0.2999    0.6286 C.3       1 UNK         0.0000 
      6 C6         -7.9661    1.5053    0.1778 C.3       1 UNK         0.0000 
      7 H7         -9.0091    1.3775    0.4791 H         1 UNK         0.0000 
      8 H8         -7.5790    2.4210    0.6333 H         1 UNK         0.0000 
      9 H9         -7.9256    1.6090   -0.9101 H         1 UNK         0.0000 
     10 C10        -7.6508   -0.9705   -0.0516 C.3       1 UNK         0.0000 
     11 H11        -8.7084   -1.1104    0.1909 H         1 UNK         0.0000 
     12 H12        -7.5582   -0.8764   -1.1378 H         1 UNK         0.0000 
     13 H13        -7.0944   -1.8467    0.2823 H         1 UNK         0.0000 
     14 O14        -5.8053    0.6281    0.1550 O.3       1 UNK         0.0000 
     15 C15        -4.7761   -0.2082    0.3676 C.2       1 UNK         0.0000 
     16 O16        -4.8342   -1.2850    0.9395 O.2       1 UNK         0.0000 
     17 N17        -3.6262    0.3244   -0.1299 N.am      1 UNK         0.0000 
     18 H18        -3.6932    1.1308   -0.7386 H         1 UNK         0.0000 
     19 C19        -2.4170   -0.4732   -0.1959 C.3       1 UNK         0.0000 
     20 C20        -1.2468    0.5024   -0.3120 C.2       1 UNK         0.0000 
     21 N21        -0.2987    0.4410    0.6396 N.am      1 UNK         0.0000 
     22 H22        -0.3489   -0.2210    1.4065 H         1 UNK         0.0000 
     23 O23        -1.1980    1.2958   -1.2530 O.2       1 UNK         0.0000 
     24 H24        -2.3486   -1.0581    0.7258 H         1 UNK         0.0000 
     25 C25        -2.4323   -1.4266   -1.4138 C.3       1 UNK         0.0000 
     26 H26        -2.5754   -0.8142   -2.3102 H         1 UNK         0.0000 
     27 H27        -3.3000   -2.0835   -1.3010 H         1 UNK         0.0000 
     28 C28        -1.1562   -2.2227   -1.5153 C.ar      1 UNK         0.0000 
     29 C29        -0.0493   -1.6866   -2.1862 C.ar      1 UNK         0.0000 
     30 C30         1.1838   -2.3259   -2.1489 C.ar      1 UNK         0.0000 
     31 H31         2.0559   -1.8912   -2.6283 H         1 UNK         0.0000 
     32 H32        -0.1502   -0.7406   -2.7119 H         1 UNK         0.0000 
     33 C33        -1.0162   -3.4535   -0.8680 C.ar      1 UNK         0.0000 
     34 H34        -1.8718   -3.8919   -0.3604 H         1 UNK         0.0000 
     35 C35         0.2154   -4.1106   -0.8285 C.ar      1 UNK         0.0000 
     36 H36         0.3399   -5.0466   -0.2932 H         1 UNK         0.0000 
     37 C37         1.3128   -3.5166   -1.4376 C.ar      1 UNK         0.0000 
     38 O38         2.5850   -4.0676   -1.2726 O.3       1 UNK         0.0000 
     39 C39         3.3533   -3.2464   -0.4628 C.ar      1 UNK         0.0000 
     40 C40         4.5240   -2.6864   -0.9681 C.ar      1 UNK         0.0000 
     41 C41         5.1808   -1.7115   -0.2195 C.ar      1 UNK         0.0000 
     42 H42         6.0595   -1.2132   -0.6177 H         1 UNK         0.0000 
     43 H43         4.8651   -2.9654   -1.9594 H         1 UNK         0.0000 
     44 C44         2.8992   -2.9357    0.8189 C.ar      1 UNK         0.0000 
     45 H45         2.0038   -3.4115    1.2046 H         1 UNK         0.0000 
     46 C46         3.5456   -1.9503    1.5463 C.ar      1 UNK         0.0000 
     47 H47         3.1435   -1.6619    2.5107 H         1 UNK         0.0000 
     48 C48         4.6625   -1.2978    1.0121 C.ar      1 UNK         0.0000 
     49 C49         5.2165   -0.0818    1.6710 C.2       1 UNK         0.0000 
     50 O50         6.3823    0.2490    1.5651 O.2       1 UNK         0.0000 
     51 C51         4.2128    0.8218    2.4044 C.3       1 UNK         0.0000 
     52 H52         3.7868    0.3075    3.2705 H         1 UNK         0.0000 
     53 H53         4.7527    1.7067    2.7472 H         1 UNK         0.0000 
     54 N54         3.1277    1.1995    1.5185 N.am      1 UNK         0.0000 
     55 H55         3.3028    1.8649    0.7585 H         1 UNK         0.0000 
     56 C56         1.8666    0.7430    1.6374 C.2       1 UNK         0.0000 
     57 O57         1.4733    0.0023    2.5373 O.2       1 UNK         0.0000 
     58 C58         0.9087    1.2373    0.5440 C.3       1 UNK         0.0000 
     59 H59         1.3691    1.0538   -0.4353 H         1 UNK         0.0000 
     60 C60         0.6277    2.7578    0.6809 C.3       1 UNK         0.0000 
     61 H61         0.8651    3.0886    1.6996 H         1 UNK         0.0000 
     62 H62        -0.4389    2.9264    0.5255 H         1 UNK         0.0000 
     63 C63         1.4055    3.5953   -0.3066 C.ar      1 UNK         0.0000 
     64 C64         0.8003    4.6591   -0.9804 C.ar      1 UNK         0.0000 
     65 H65        -0.2492    4.8771   -0.8134 H         1 UNK         0.0000 
     66 C66         1.5583    5.4163   -1.8669 C.ar      1 UNK         0.0000 
     67 H67         1.1088    6.2461   -2.4029 H         1 UNK         0.0000 
     68 C68         2.8976    5.0875   -2.0617 C.ar      1 UNK         0.0000 
     69 H69         3.5260    5.6468   -2.7451 H         1 UNK         0.0000 
     70 C70         3.4164    4.0070   -1.3559 C.ar      1 UNK         0.0000 
     71 H71         4.4545    3.7100   -1.4797 H         1 UNK         0.0000 
     72 N72         2.6935    3.2776   -0.4990 N.ar      1 UNK         0.0000 
@<TRIPOS>BOND
     1    1    3 1    
     2    1    2 1    
     3    1    4 1    
     4    1    5 1    
     5    5    6 1    
     6    5   10 1    
     7    5   14 1    
     8    6    7 1    
     9    6    8 1    
    10    6    9 1    
    11   10   11 1    
    12   10   13 1    
    13   10   12 1    
    14   14   15 1    
    15   15   16 2    
    16   15   17 am   BACKBONE|DICT|INTERRES
    17   17   18 1    
    18   17   19 1    
    19   19   24 1    
    20   19   20 1    
    21   19   25 1    
    22   20   21 am   BACKBONE|DICT|INTERRES
    23   20   23 2    
    24   21   22 1    
    25   21   58 1    
    26   25   27 1    
    27   25   26 1    
    28   25   28 1    
    29   28   33 ar   
    30   28   29 ar   
    31   29   30 ar   
    32   29   32 1    
    33   30   37 ar   
    34   30   31 1    
    35   33   35 ar   
    36   33   34 1    
    37   35   36 1    
    38   35   37 ar   
    39   37   38 1    
    40   38   39 1    
    41   39   44 ar   
    42   39   40 ar   
    43   40   41 ar   
    44   40   43 1    
    45   41   48 ar   
    46   41   42 1    
    47   44   45 1    
    48   44   46 ar   
    49   46   47 1    
    50   46   48 ar   
    51   48   49 1    
    52   49   51 1    
    53   49   50 2    
    54   51   53 1    
    55   51   52 1    
    56   51   54 1    
    57   54   56 am   BACKBONE|DICT|INTERRES
    58   54   55 1    
    59   56   57 2    
    60   56   58 1    
    61   58   59 1    
    62   58   60 1    
    63   60   61 1    
    64   60   62 1    
    65   60   63 1    
    66   63   64 ar   
    67   63   72 ar   
    68   64   65 1    
    69   64   66 ar   
    70   66   67 1    
    71   66   68 ar   
    72   68   70 ar   
    73   68   69 1    
    74   70   72 ar   
    75   70   71 1    
@<TRIPOS>SUBSTRUCTURE
     1 UNK         1 GROUP             0       ****    0 ROOT    
@<TRIPOS>MOLECULE
Cpd5-1000
72   75    1
SMALL
USER_CHARGES


@<TRIPOS>ATOM
      1 C1         -4.2001    3.3780    2.6892 C.3       1 UNK         0.0000 
      2 H2         -3.8545    3.9613    1.8298 H         1 UNK         0.0000 
      3 H3         -4.6021    4.0707    3.4343 H         1 UNK         0.0000 
      4 H4         -3.3552    2.8436    3.1249 H         1 UNK         0.0000 
      5 C5         -5.3046    2.4168    2.2581 C.3       1 UNK         0.0000 
      6 C6         -6.4900    3.1858    1.6863 C.3       1 UNK         0.0000 
      7 H7         -6.1712    3.8102    0.8471 H         1 UNK         0.0000 
      8 H8         -7.2612    2.4937    1.3372 H         1 UNK         0.0000 
      9 H9         -6.9199    3.8289    2.4586 H         1 UNK         0.0000 
     10 C10        -5.7553    1.5015    3.3925 C.3       1 UNK         0.0000 
     11 H11        -6.2219    2.1073    4.1749 H         1 UNK         0.0000 
     12 H12        -6.4968    0.7859    3.0249 H         1 UNK         0.0000 
     13 H13        -4.9135    0.9582    3.8229 H         1 UNK         0.0000 
     14 O14        -4.8580    1.6197    1.1157 O.3       1 UNK         0.0000 
     15 C15        -3.7983    0.8050    1.2179 C.2       1 UNK         0.0000 
     16 O16        -3.1306    0.6167    2.2217 O.2       1 UNK         0.0000 
     17 N17        -3.5667    0.1733    0.0285 N.am      1 UNK         0.0000 
     18 H18        -4.0080    0.5715   -0.7910 H         1 UNK         0.0000 
     19 C19        -2.3268   -0.5609   -0.1532 C.3       1 UNK         0.0000 
     20 C20        -1.1610    0.4329   -0.2899 C.2       1 UNK         0.0000 
     21 N21        -0.2627    0.4443    0.7137 N.am      1 UNK         0.0000 
     22 H22        -0.4411   -0.0701    1.5696 H         1 UNK         0.0000 
     23 O23        -1.0826    1.1728   -1.2703 O.2       1 UNK         0.0000 
     24 H24        -2.1814   -1.1884    0.7314 H         1 UNK         0.0000 
     25 C25        -2.4224   -1.4484   -1.4042 C.3       1 UNK         0.0000 
     26 H26        -2.5765   -0.8048   -2.2770 H         1 UNK         0.0000 
     27 H27        -3.2973   -2.0957   -1.2925 H         1 UNK         0.0000 
     28 C28        -1.1617   -2.2621   -1.5654 C.ar      1 UNK         0.0000 
     29 C29        -0.0627   -1.7291   -2.2499 C.ar      1 UNK         0.0000 
     30 C30         1.1696   -2.3709   -2.2206 C.ar      1 UNK         0.0000 
     31 H31         2.0418   -1.9332   -2.6972 H         1 UNK         0.0000 
     32 H32        -0.1640   -0.7774   -2.7637 H         1 UNK         0.0000 
     33 C33        -1.0234   -3.5011   -0.9334 C.ar      1 UNK         0.0000 
     34 H34        -1.8755   -3.9393   -0.4198 H         1 UNK         0.0000 
     35 C35         0.2069   -4.1603   -0.9023 C.ar      1 UNK         0.0000 
     36 H36         0.3346   -5.0952   -0.3661 H         1 UNK         0.0000 
     37 C37         1.3031   -3.5575   -1.5042 C.ar      1 UNK         0.0000 
     38 O38         2.5818   -4.0820   -1.3103 O.3       1 UNK         0.0000 
     39 C39         3.3197   -3.2462   -0.4891 C.ar      1 UNK         0.0000 
     40 C40         4.5545   -2.7757   -0.9291 C.ar      1 UNK         0.0000 
     41 C41         5.2078   -1.7978   -0.1816 C.ar      1 UNK         0.0000 
     42 H42         6.1424   -1.3715   -0.5337 H         1 UNK         0.0000 
     43 H43         4.9534   -3.1272   -1.8747 H         1 UNK         0.0000 
     44 C44         2.7873   -2.8369    0.7353 C.ar      1 UNK         0.0000 
     45 H45         1.8400   -3.2401    1.0762 H         1 UNK         0.0000 
     46 C46         3.4329   -1.8497    1.4599 C.ar      1 UNK         0.0000 
     47 H47         2.9784   -1.4916    2.3778 H         1 UNK         0.0000 
     48 C48         4.6261   -1.2921    0.9857 C.ar      1 UNK         0.0000 
     49 C49         5.2136   -0.0923    1.6414 C.2       1 UNK         0.0000 
     50 O50         6.3959    0.1847    1.5630 O.2       1 UNK         0.0000 
     51 C51         4.2461    0.8576    2.3639 C.3       1 UNK         0.0000 
     52 H52         3.8407    0.3797    3.2608 H         1 UNK         0.0000 
     53 H53         4.8159    1.7404    2.6624 H         1 UNK         0.0000 
     54 N54         3.1316    1.2290    1.5133 N.am      1 UNK         0.0000 
     55 H55         3.2961    1.8481    0.7248 H         1 UNK         0.0000 
     56 C56         1.8482    0.8975    1.7640 C.2       1 UNK         0.0000 
     57 O57         1.4839    0.2436    2.7397 O.2       1 UNK         0.0000 
     58 C58         0.8302    1.3995    0.7359 C.3       1 UNK         0.0000 
     59 H59         1.2787    1.4344   -0.2600 H         1 UNK         0.0000 
     60 C60         0.3124    2.8014    1.1054 C.3       1 UNK         0.0000 
     61 H61        -0.0464    2.7926    2.1409 H         1 UNK         0.0000 
     62 H62        -0.5574    2.9923    0.4652 H         1 UNK         0.0000 
     63 C63         1.3004    3.9295    0.9070 C.ar      1 UNK         0.0000 
     64 C64         1.0749    5.1647    1.5258 C.ar      1 UNK         0.0000 
     65 H65         0.2181    5.2906    2.1804 H         1 UNK         0.0000 
     66 C66         1.9542    6.2126    1.2865 C.ar      1 UNK         0.0000 
     67 H67         1.7983    7.1793    1.7551 H         1 UNK         0.0000 
     68 C68         3.0396    6.0001    0.4380 C.ar      1 UNK         0.0000 
     69 H69         3.7536    6.7863    0.2212 H         1 UNK         0.0000 
     70 C70         3.1926    4.7376   -0.1234 C.ar      1 UNK         0.0000 
     71 H71         4.0307    4.5240   -0.7817 H         1 UNK         0.0000 
     72 N72         2.3489    3.7216    0.1006 N.ar      1 UNK         0.0000 
@<TRIPOS>BOND
     1    1    5 1    
     2    1    2 1    
     3    1    3 1    
     4    1    4 1    
     5    5   14 1    
     6    5    6 1    
     7    5   10 1    
     8    6    8 1    
     9    6    7 1    
    10    6    9 1    
    11   10   12 1    
    12   10   11 1    
    13   10   13 1    
    14   14   15 1    
    15   15   17 am   BACKBONE|DICT|INTERRES
    16   15   16 2    
    17   17   18 1    
    18   17   19 1    
    19   19   24 1    
    20   19   20 1    
    21   19   25 1    
    22   20   23 2    
    23   20   21 am   BACKBONE|DICT|INTERRES
    24   21   58 1    
    25   21   22 1    
    26   25   26 1    
    27   25   27 1    
    28   25   28 1    
    29   28   29 ar   
    30   28   33 ar   
    31   29   32 1    
    32   29   30 ar   
    33   30   31 1    
    34   30   37 ar   
    35   33   34 1    
    36   33   35 ar   
    37   35   37 ar   
    38   35   36 1    
    39   37   38 1    
    40   38   39 1    
    41   39   40 ar   
    42   39   44 ar   
    43   40   43 1    
    44   40   41 ar   
    45   41   42 1    
    46   41   48 ar   
    47   44   45 1    
    48   44   46 ar   
    49   46   48 ar   
    50   46   47 1    
    51   48   49 1    
    52   49   50 2    
    53   49   51 1    
    54   51   54 1    
    55   51   52 1    
    56   51   53 1    
    57   54   55 1    
    58   54   56 am   BACKBONE|DICT|INTERRES
    59   56   58 1    
    60   56   57 2    
    61   58   60 1    
    62   58   59 1    
    63   60   63 1    
    64   60   62 1    
    65   60   61 1    
    66   63   72 ar   
    67   63   64 ar   
    68   64   66 ar   
    69   64   65 1    
    70   66   68 ar   
    71   66   67 1    
    72   68   70 ar   
    73   68   69 1    
    74   70   71 1    
    75   70   72 ar   
@<TRIPOS>SUBSTRUCTURE
     1 UNK         1 GROUP             0       ****    0 ROOT    
@<TRIPOS>MOLECULE
Cpd5-1500-MRC
72   75    1
SMALL
USER_CHARGES


@<TRIPOS>ATOM
      1 C1         -4.2007    3.3782    2.6890 C.3       1 UNK         0.0000 
      2 H2         -4.6029    4.0708    3.4342 H         1 UNK         0.0000 
      3 H3         -3.3556    2.8442    3.1246 H         1 UNK         0.0000 
      4 H4         -3.8556    3.9616    1.8296 H         1 UNK         0.0000 
      5 C5         -5.3047    2.4164    2.2583 C.3       1 UNK         0.0000 
      6 C6         -6.4906    3.1847    1.6866 C.3       1 UNK         0.0000 
      7 H7         -7.2615    2.4921    1.3378 H         1 UNK         0.0000 
      8 H8         -6.9208    3.8276    2.4590 H         1 UNK         0.0000 
      9 H9         -6.1724    3.8091    0.8472 H         1 UNK         0.0000 
     10 C10        -5.7548    1.5010    3.3928 C.3       1 UNK         0.0000 
     11 H11        -4.9128    0.9582    3.8231 H         1 UNK         0.0000 
     12 H12        -6.2217    2.1066    4.1752 H         1 UNK         0.0000 
     13 H13        -6.4962    0.7851    3.0254 H         1 UNK         0.0000 
     14 O14        -4.8579    1.6196    1.1158 O.3       1 UNK         0.0000 
     15 C15        -3.7981    0.8050    1.2178 C.2       1 UNK         0.0000 
     16 O16        -3.1300    0.6171    2.2215 O.2       1 UNK         0.0000 
     17 N17        -3.5667    0.1731    0.0285 N.am      1 UNK         0.0000 
     18 H18        -4.0082    0.5711   -0.7909 H         1 UNK         0.0000 
     19 C19        -2.3267   -0.5609   -0.1532 C.3       1 UNK         0.0000 
     20 C20        -1.1610    0.4330   -0.2899 C.2       1 UNK         0.0000 
     21 N21        -0.2627    0.4442    0.7139 N.am      1 UNK         0.0000 
     22 H22        -0.4415   -0.0698    1.5698 H         1 UNK         0.0000 
     23 O23        -1.0827    1.1730   -1.2701 O.2       1 UNK         0.0000 
     24 H24        -2.1813   -1.1886    0.7312 H         1 UNK         0.0000 
     25 C25        -2.4223   -1.4484   -1.4044 C.3       1 UNK         0.0000 
     26 H26        -2.5762   -0.8046   -2.2771 H         1 UNK         0.0000 
     27 H27        -3.2973   -2.0956   -1.2927 H         1 UNK         0.0000 
     28 C28        -1.1616   -2.2620   -1.5656 C.ar      1 UNK         0.0000 
     29 C29        -0.0625   -1.7291   -2.2498 C.ar      1 UNK         0.0000 
     30 C30         1.1698   -2.3710   -2.2206 C.ar      1 UNK         0.0000 
     31 H31         2.0420   -1.9334   -2.6970 H         1 UNK         0.0000 
     32 H32        -0.1638   -0.7774   -2.7637 H         1 UNK         0.0000 
     33 C33        -1.0234   -3.5011   -0.9336 C.ar      1 UNK         0.0000 
     34 H34        -1.8756   -3.9393   -0.4201 H         1 UNK         0.0000 
     35 C35         0.2067   -4.1604   -0.9024 C.ar      1 UNK         0.0000 
     36 H36         0.3345   -5.0953   -0.3661 H         1 UNK         0.0000 
     37 C37         1.3031   -3.5576   -1.5042 C.ar      1 UNK         0.0000 
     38 O38         2.5818   -4.0822   -1.3102 O.3       1 UNK         0.0000 
     39 C39         3.3196   -3.2463   -0.4890 C.ar      1 UNK         0.0000 
     40 C40         4.5545   -2.7758   -0.9291 C.ar      1 UNK         0.0000 
     41 C41         5.2078   -1.7978   -0.1816 C.ar      1 UNK         0.0000 
     42 H42         6.1424   -1.3717   -0.5337 H         1 UNK         0.0000 
     43 H43         4.9534   -3.1274   -1.8745 H         1 UNK         0.0000 
     44 C44         2.7872   -2.8369    0.7353 C.ar      1 UNK         0.0000 
     45 H45         1.8399   -3.2401    1.0762 H         1 UNK         0.0000 
     46 C46         3.4329   -1.8496    1.4598 C.ar      1 UNK         0.0000 
     47 H47         2.9783   -1.4914    2.3777 H         1 UNK         0.0000 
     48 C48         4.6260   -1.2921    0.9856 C.ar      1 UNK         0.0000 
     49 C49         5.2136   -0.0923    1.6413 C.2       1 UNK         0.0000 
     50 O50         6.3959    0.1848    1.5627 O.2       1 UNK         0.0000 
     51 C51         4.2461    0.8577    2.3638 C.3       1 UNK         0.0000 
     52 H52         3.8408    0.3799    3.2607 H         1 UNK         0.0000 
     53 H53         4.8158    1.7405    2.6621 H         1 UNK         0.0000 
     54 N54         3.1315    1.2289    1.5132 N.am      1 UNK         0.0000 
     55 H55         3.2957    1.8487    0.7251 H         1 UNK         0.0000 
     56 C56         1.8481    0.8976    1.7642 C.2       1 UNK         0.0000 
     57 O57         1.4840    0.2437    2.7399 O.2       1 UNK         0.0000 
     58 C58         0.8299    1.3998    0.7364 C.3       1 UNK         0.0000 
     59 H59         1.2782    1.4351   -0.2596 H         1 UNK         0.0000 
     60 C60         0.3117    2.8014    1.1065 C.3       1 UNK         0.0000 
     61 H61        -0.0471    2.7919    2.1419 H         1 UNK         0.0000 
     62 H62        -0.5582    2.9922    0.4664 H         1 UNK         0.0000 
     63 C63         1.2992    3.9298    0.9086 C.ar      1 UNK         0.0000 
     64 C64         1.0732    5.1649    1.5276 C.ar      1 UNK         0.0000 
     65 H65         0.2161    5.2902    2.1820 H         1 UNK         0.0000 
     66 C66         1.9521    6.2132    1.2889 C.ar      1 UNK         0.0000 
     67 H67         1.7957    7.1796    1.7576 H         1 UNK         0.0000 
     68 C68         3.0377    6.0012    0.4405 C.ar      1 UNK         0.0000 
     69 H69         3.7515    6.7878    0.2241 H         1 UNK         0.0000 
     70 C70         3.1913    4.7389   -0.1212 C.ar      1 UNK         0.0000 
     71 H71         4.0297    4.5258   -0.7795 H         1 UNK         0.0000 
     72 N72         2.3480    3.7226    0.1024 N.ar      1 UNK         0.0000 
@<TRIPOS>BOND
     1    1    5 1    
     2    1    4 1    
     3    1    2 1    
     4    1    3 1    
     5    5   14 1    
     6    5    6 1    
     7    5   10 1    
     8    6    7 1    
     9    6    9 1    
    10    6    8 1    
    11   10   13 1    
    12   10   11 1    
    13   10   12 1    
    14   14   15 1    
    15   15   17 am   BACKBONE|DICT|INTERRES
    16   15   16 2    
    17   17   18 1    
    18   17   19 1    
    19   19   24 1    
    20   19   20 1    
    21   19   25 1    
    22   20   23 2    
    23   20   21 am   BACKBONE|DICT|INTERRES
    24   21   58 1    
    25   21   22 1    
    26   25   26 1    
    27   25   27 1    
    28   25   28 1    
    29   28   29 ar   
    30   28   33 ar   
    31   29   32 1    
    32   29   30 ar   
    33   30   31 1    
    34   30   37 ar   
    35   33   34 1    
    36   33   35 ar   
    37   35   37 ar   
    38   35   36 1    
    39   37   38 1    
    40   38   39 1    
    41   39   40 ar   
    42   39   44 ar   
    43   40   43 1    
    44   40   41 ar   
    45   41   42 1    
    46   41   48 ar   
    47   44   45 1    
    48   44   46 ar   
    49   46   48 ar   
    50   46   47 1    
    51   48   49 1    
    52   49   50 2    
    53   49   51 1    
    54   51   54 1    
    55   51   52 1    
    56   51   53 1    
    57   54   55 1    
    58   54   56 am   BACKBONE|DICT|INTERRES
    59   56   58 1    
    60   56   57 2    
    61   58   60 1    
    62   58   59 1    
    63   60   63 1    
    64   60   62 1    
    65   60   61 1    
    66   63   72 ar   
    67   63   64 ar   
    68   64   66 ar   
    69   64   65 1    
    70   66   68 ar   
    71   66   67 1    
    72   68   70 ar   
    73   68   69 1    
    74   70   71 1    
    75   70   72 ar   
@<TRIPOS>SUBSTRUCTURE
     1 UNK         1 GROUP             0       ****    0 ROOT    
@<TRIPOS>MOLECULE
Cpd5-2000
72   75    1
SMALL
USER_CHARGES


@<TRIPOS>ATOM
      1 C1         -4.2000    3.3775    2.6898 C.3       1 UNK         0.0000 
      2 H2         -3.8544    3.9606    1.8305 H         1 UNK         0.0000 
      3 H3         -4.6020    4.0702    3.4349 H         1 UNK         0.0000 
      4 H4         -3.3552    2.8430    3.1257 H         1 UNK         0.0000 
      5 C5         -5.3044    2.4163    2.2589 C.3       1 UNK         0.0000 
      6 C6         -6.4899    3.1853    1.6871 C.3       1 UNK         0.0000 
      7 H7         -7.2611    2.4932    1.3380 H         1 UNK         0.0000 
      8 H8         -6.9198    3.8282    2.4596 H         1 UNK         0.0000 
      9 H9         -6.1712    3.8098    0.8480 H         1 UNK         0.0000 
     10 C10        -5.7551    1.5009    3.3930 C.3       1 UNK         0.0000 
     11 H11        -4.9134    0.9574    3.8232 H         1 UNK         0.0000 
     12 H12        -6.2217    2.1064    4.1757 H         1 UNK         0.0000 
     13 H13        -6.4967    0.7854    3.0254 H         1 UNK         0.0000 
     14 O14        -4.8580    1.6193    1.1163 O.3       1 UNK         0.0000 
     15 C15        -3.7982    0.8047    1.2182 C.2       1 UNK         0.0000 
     16 O16        -3.1304    0.6164    2.2220 O.2       1 UNK         0.0000 
     17 N17        -3.5666    0.1731    0.0288 N.am      1 UNK         0.0000 
     18 H18        -4.0082    0.5712   -0.7906 H         1 UNK         0.0000 
     19 C19        -2.3268   -0.5610   -0.1531 C.3       1 UNK         0.0000 
     20 C20        -1.1609    0.4329   -0.2899 C.2       1 UNK         0.0000 
     21 N21        -0.2627    0.4443    0.7138 N.am      1 UNK         0.0000 
     22 H22        -0.4411   -0.0700    1.5697 H         1 UNK         0.0000 
     23 O23        -1.0827    1.1726   -1.2703 O.2       1 UNK         0.0000 
     24 H24        -2.1813   -1.1886    0.7314 H         1 UNK         0.0000 
     25 C25        -2.4224   -1.4485   -1.4041 C.3       1 UNK         0.0000 
     26 H26        -2.5766   -0.8048   -2.2768 H         1 UNK         0.0000 
     27 H27        -3.2974   -2.0958   -1.2923 H         1 UNK         0.0000 
     28 C28        -1.1618   -2.2621   -1.5655 C.ar      1 UNK         0.0000 
     29 C29        -0.0628   -1.7292   -2.2499 C.ar      1 UNK         0.0000 
     30 C30         1.1696   -2.3710   -2.2207 C.ar      1 UNK         0.0000 
     31 H31         2.0417   -1.9333   -2.6973 H         1 UNK         0.0000 
     32 H32        -0.1641   -0.7774   -2.7637 H         1 UNK         0.0000 
     33 C33        -1.0234   -3.5012   -0.9335 C.ar      1 UNK         0.0000 
     34 H34        -1.8754   -3.9394   -0.4198 H         1 UNK         0.0000 
     35 C35         0.2068   -4.1603   -0.9023 C.ar      1 UNK         0.0000 
     36 H36         0.3346   -5.0953   -0.3661 H         1 UNK         0.0000 
     37 C37         1.3031   -3.5574   -1.5044 C.ar      1 UNK         0.0000 
     38 O38         2.5819   -4.0820   -1.3103 O.3       1 UNK         0.0000 
     39 C39         3.3196   -3.2461   -0.4891 C.ar      1 UNK         0.0000 
     40 C40         4.5546   -2.7756   -0.9291 C.ar      1 UNK         0.0000 
     41 C41         5.2078   -1.7978   -0.1815 C.ar      1 UNK         0.0000 
     42 H42         6.1424   -1.3716   -0.5337 H         1 UNK         0.0000 
     43 H43         4.9534   -3.1272   -1.8746 H         1 UNK         0.0000 
     44 C44         2.7872   -2.8367    0.7352 C.ar      1 UNK         0.0000 
     45 H45         1.8398   -3.2399    1.0762 H         1 UNK         0.0000 
     46 C46         3.4328   -1.8496    1.4598 C.ar      1 UNK         0.0000 
     47 H47         2.9782   -1.4914    2.3777 H         1 UNK         0.0000 
     48 C48         4.6261   -1.2922    0.9856 C.ar      1 UNK         0.0000 
     49 C49         5.2137   -0.0924    1.6415 C.2       1 UNK         0.0000 
     50 O50         6.3960    0.1845    1.5632 O.2       1 UNK         0.0000 
     51 C51         4.2462    0.8577    2.3639 C.3       1 UNK         0.0000 
     52 H52         3.8408    0.3799    3.2608 H         1 UNK         0.0000 
     53 H53         4.8159    1.7404    2.6622 H         1 UNK         0.0000 
     54 N54         3.1316    1.2289    1.5132 N.am      1 UNK         0.0000 
     55 H55         3.2961    1.8481    0.7247 H         1 UNK         0.0000 
     56 C56         1.8483    0.8977    1.7640 C.2       1 UNK         0.0000 
     57 O57         1.4840    0.2439    2.7398 O.2       1 UNK         0.0000 
     58 C58         0.8301    1.3997    0.7360 C.3       1 UNK         0.0000 
     59 H59         1.2786    1.4345   -0.2599 H         1 UNK         0.0000 
     60 C60         0.3122    2.8015    1.1055 C.3       1 UNK         0.0000 
     61 H61        -0.0472    2.7924    2.1408 H         1 UNK         0.0000 
     62 H62        -0.5573    2.9924    0.4649 H         1 UNK         0.0000 
     63 C63         1.3003    3.9296    0.9080 C.ar      1 UNK         0.0000 
     64 C64         1.0753    5.1643    1.5278 C.ar      1 UNK         0.0000 
     65 H65         0.2186    5.2896    2.1828 H         1 UNK         0.0000 
     66 C66         1.9546    6.2123    1.2892 C.ar      1 UNK         0.0000 
     67 H67         1.7990    7.1785    1.7585 H         1 UNK         0.0000 
     68 C68         3.0397    6.0002    0.4401 C.ar      1 UNK         0.0000 
     69 H69         3.7538    6.7865    0.2238 H         1 UNK         0.0000 
     70 C70         3.1923    4.7382   -0.1224 C.ar      1 UNK         0.0000 
     71 H71         4.0303    4.5249   -0.7813 H         1 UNK         0.0000 
     72 N72         2.3486    3.7221    0.1009 N.ar      1 UNK         0.0000 
@<TRIPOS>BOND
     1    1    3 1    
     2    1    4 1    
     3    1    2 1    
     4    1    5 1    
     5    5   10 1    
     6    5    6 1    
     7    5   14 1    
     8    6    8 1    
     9    6    7 1    
    10    6    9 1    
    11   10   12 1    
    12   10   11 1    
    13   10   13 1    
    14   14   15 1    
    15   15   16 2    
    16   15   17 am   BACKBONE|DICT|INTERRES
    17   17   19 1    
    18   17   18 1    
    19   19   24 1    
    20   19   20 1    
    21   19   25 1    
    22   20   21 am   BACKBONE|DICT|INTERRES
    23   20   23 2    
    24   21   22 1    
    25   21   58 1    
    26   25   28 1    
    27   25   27 1    
    28   25   26 1    
    29   28   33 ar   
    30   28   29 ar   
    31   29   30 ar   
    32   29   32 1    
    33   30   37 ar   
    34   30   31 1    
    35   33   35 ar   
    36   33   34 1    
    37   35   36 1    
    38   35   37 ar   
    39   37   38 1    
    40   38   39 1    
    41   39   44 ar   
    42   39   40 ar   
    43   40   41 ar   
    44   40   43 1    
    45   41   48 ar   
    46   41   42 1    
    47   44   46 ar   
    48   44   45 1    
    49   46   47 1    
    50   46   48 ar   
    51   48   49 1    
    52   49   51 1    
    53   49   50 2    
    54   51   53 1    
    55   51   52 1    
    56   51   54 1    
    57   54   56 am   BACKBONE|DICT|INTERRES
    58   54   55 1    
    59   56   57 2    
    60   56   58 1    
    61   58   59 1    
    62   58   60 1    
    63   60   61 1    
    64   60   62 1    
    65   60   63 1    
    66   63   64 ar   
    67   63   72 ar   
    68   64   65 1    
    69   64   66 ar   
    70   66   67 1    
    71   66   68 ar   
    72   68   69 1    
    73   68   70 ar   
    74   70   72 ar   
    75   70   71 1    
@<TRIPOS>SUBSTRUCTURE
     1 UNK         1 GROUP             0       ****    0 ROOT    
@<TRIPOS>MOLECULE
Cpd5-2500
72   75    1
SMALL
USER_CHARGES


@<TRIPOS>ATOM
      1 C1         -7.1574    0.1863    2.1493 C.3       1 UNK         0.0000 
      2 H2         -6.7270    1.0877    2.5959 H         1 UNK         0.0000 
      3 H3         -8.1915    0.0934    2.4939 H         1 UNK         0.0000 
      4 H4         -6.5946   -0.6853    2.4851 H         1 UNK         0.0000 
      5 C5         -7.1490    0.3008    0.6278 C.3       1 UNK         0.0000 
      6 C6         -7.9656    1.5069    0.1777 C.3       1 UNK         0.0000 
      7 H7         -9.0089    1.3788    0.4781 H         1 UNK         0.0000 
      8 H8         -7.5788    2.4219    0.6346 H         1 UNK         0.0000 
      9 H9         -7.9243    1.6118   -0.9100 H         1 UNK         0.0000 
     10 C10        -7.6510   -0.9689   -0.0537 C.3       1 UNK         0.0000 
     11 H11        -7.0941   -1.8454    0.2788 H         1 UNK         0.0000 
     12 H12        -8.7084   -1.1094    0.1893 H         1 UNK         0.0000 
     13 H13        -7.5591   -0.8735   -1.1399 H         1 UNK         0.0000 
     14 O14        -5.8051    0.6289    0.1548 O.3       1 UNK         0.0000 
     15 C15        -4.7763   -0.2077    0.3672 C.2       1 UNK         0.0000 
     16 O16        -4.8346   -1.2845    0.9390 O.2       1 UNK         0.0000 
     17 N17        -3.6262    0.3246   -0.1302 N.am      1 UNK         0.0000 
     18 H18        -3.6930    1.1311   -0.7388 H         1 UNK         0.0000 
     19 C19        -2.4171   -0.4730   -0.1960 C.3       1 UNK         0.0000 
     20 C20        -1.2468    0.5025   -0.3120 C.2       1 UNK         0.0000 
     21 N21        -0.2987    0.4409    0.6396 N.am      1 UNK         0.0000 
     22 H22        -0.3491   -0.2210    1.4066 H         1 UNK         0.0000 
     23 O23        -1.1978    1.2958   -1.2530 O.2       1 UNK         0.0000 
     24 H24        -2.3488   -1.0580    0.7258 H         1 UNK         0.0000 
     25 C25        -2.4322   -1.4266   -1.4138 C.3       1 UNK         0.0000 
     26 H26        -2.5754   -0.8143   -2.3102 H         1 UNK         0.0000 
     27 H27        -3.2999   -2.0836   -1.3009 H         1 UNK         0.0000 
     28 C28        -1.1562   -2.2227   -1.5152 C.ar      1 UNK         0.0000 
     29 C29        -0.0493   -1.6866   -2.1861 C.ar      1 UNK         0.0000 
     30 C30         1.1838   -2.3259   -2.1489 C.ar      1 UNK         0.0000 
     31 H31         2.0559   -1.8912   -2.6283 H         1 UNK         0.0000 
     32 H32        -0.1502   -0.7405   -2.7118 H         1 UNK         0.0000 
     33 C33        -1.0162   -3.4535   -0.8680 C.ar      1 UNK         0.0000 
     34 H34        -1.8718   -3.8919   -0.3604 H         1 UNK         0.0000 
     35 C35         0.2154   -4.1106   -0.8285 C.ar      1 UNK         0.0000 
     36 H36         0.3399   -5.0466   -0.2932 H         1 UNK         0.0000 
     37 C37         1.3128   -3.5167   -1.4376 C.ar      1 UNK         0.0000 
     38 O38         2.5850   -4.0676   -1.2727 O.3       1 UNK         0.0000 
     39 C39         3.3533   -3.2465   -0.4628 C.ar      1 UNK         0.0000 
     40 C40         4.5241   -2.6865   -0.9680 C.ar      1 UNK         0.0000 
     41 C41         5.1809   -1.7117   -0.2194 C.ar      1 UNK         0.0000 
     42 H42         6.0596   -1.2134   -0.6177 H         1 UNK         0.0000 
     43 H43         4.8651   -2.9658   -1.9593 H         1 UNK         0.0000 
     44 C44         2.8991   -2.9356    0.8188 C.ar      1 UNK         0.0000 
     45 H45         2.0036   -3.4113    1.2046 H         1 UNK         0.0000 
     46 C46         3.5455   -1.9502    1.5463 C.ar      1 UNK         0.0000 
     47 H47         3.1435   -1.6617    2.5106 H         1 UNK         0.0000 
     48 C48         4.6625   -1.2978    1.0121 C.ar      1 UNK         0.0000 
     49 C49         5.2165   -0.0817    1.6709 C.2       1 UNK         0.0000 
     50 O50         6.3822    0.2493    1.5648 O.2       1 UNK         0.0000 
     51 C51         4.2128    0.8218    2.4045 C.3       1 UNK         0.0000 
     52 H52         3.7867    0.3073    3.2704 H         1 UNK         0.0000 
     53 H53         4.7526    1.7067    2.7473 H         1 UNK         0.0000 
     54 N54         3.1277    1.1994    1.5186 N.am      1 UNK         0.0000 
     55 H55         3.3026    1.8652    0.7587 H         1 UNK         0.0000 
     56 C56         1.8666    0.7430    1.6375 C.2       1 UNK         0.0000 
     57 O57         1.4733    0.0023    2.5373 O.2       1 UNK         0.0000 
     58 C58         0.9086    1.2374    0.5442 C.3       1 UNK         0.0000 
     59 H59         1.3689    1.0543   -0.4352 H         1 UNK         0.0000 
     60 C60         0.6273    2.7578    0.6815 C.3       1 UNK         0.0000 
     61 H61         0.8647    3.0883    1.7003 H         1 UNK         0.0000 
     62 H62        -0.4392    2.9263    0.5261 H         1 UNK         0.0000 
     63 C63         1.4052    3.5957   -0.3057 C.ar      1 UNK         0.0000 
     64 C64         0.7998    4.6594   -0.9793 C.ar      1 UNK         0.0000 
     65 H65        -0.2498    4.8771   -0.8124 H         1 UNK         0.0000 
     66 C66         1.5576    5.4169   -1.8657 C.ar      1 UNK         0.0000 
     67 H67         1.1080    6.2466   -2.4018 H         1 UNK         0.0000 
     68 C68         2.8971    5.0885   -2.0605 C.ar      1 UNK         0.0000 
     69 H69         3.5253    5.6480   -2.7438 H         1 UNK         0.0000 
     70 C70         3.4161    4.0081   -1.3547 C.ar      1 UNK         0.0000 
     71 H71         4.4543    3.7114   -1.4784 H         1 UNK         0.0000 
     72 N72         2.6933    3.2784   -0.4980 N.ar      1 UNK         0.0000 
@<TRIPOS>BOND
     1    1    5 1    
     2    1    2 1    
     3    1    3 1    
     4    1    4 1    
     5    5    6 1    
     6    5   14 1    
     7    5   10 1    
     8    6    9 1    
     9    6    7 1    
    10    6    8 1    
    11   10   13 1    
    12   10   11 1    
    13   10   12 1    
    14   14   15 1    
    15   15   17 am   BACKBONE|DICT|INTERRES
    16   15   16 2    
    17   17   19 1    
    18   17   18 1    
    19   19   24 1    
    20   19   20 1    
    21   19   25 1    
    22   20   23 2    
    23   20   21 am   BACKBONE|DICT|INTERRES
    24   21   58 1    
    25   21   22 1    
    26   25   28 1    
    27   25   26 1    
    28   25   27 1    
    29   28   29 ar   
    30   28   33 ar   
    31   29   32 1    
    32   29   30 ar   
    33   30   31 1    
    34   30   37 ar   
    35   33   34 1    
    36   33   35 ar   
    37   35   37 ar   
    38   35   36 1    
    39   37   38 1    
    40   38   39 1    
    41   39   40 ar   
    42   39   44 ar   
    43   40   43 1    
    44   40   41 ar   
    45   41   42 1    
    46   41   48 ar   
    47   44   45 1    
    48   44   46 ar   
    49   46   48 ar   
    50   46   47 1    
    51   48   49 1    
    52   49   50 2    
    53   49   51 1    
    54   51   54 1    
    55   51   52 1    
    56   51   53 1    
    57   54   55 1    
    58   54   56 am   BACKBONE|DICT|INTERRES
    59   56   58 1    
    60   56   57 2    
    61   58   59 1    
    62   58   60 1    
    63   60   62 1    
    64   60   63 1    
    65   60   61 1    
    66   63   72 ar   
    67   63   64 ar   
    68   64   66 ar   
    69   64   65 1    
    70   66   68 ar   
    71   66   67 1    
    72   68   69 1    
    73   68   70 ar   
    74   70   71 1    
    75   70   72 ar   
@<TRIPOS>SUBSTRUCTURE
     1 UNK         1 GROUP             0       ****    0 ROOT    
@<TRIPOS>MOLECULE
Cpd5-3000
72   75    1
SMALL
USER_CHARGES


@<TRIPOS>ATOM
      1 C1         -7.1582    0.1860    2.1477 C.3       1 UNK         0.0000 
      2 H2         -6.7287    1.0882    2.5937 H         1 UNK         0.0000 
      3 H3         -8.1924    0.0925    2.4921 H         1 UNK         0.0000 
      4 H4         -6.5949   -0.6848    2.4844 H         1 UNK         0.0000 
      5 C5         -7.1495    0.2992    0.6260 C.3       1 UNK         0.0000 
      6 C6         -7.9667    1.5044    0.1747 C.3       1 UNK         0.0000 
      7 H7         -9.0100    1.3759    0.4746 H         1 UNK         0.0000 
      8 H8         -7.5807    2.4201    0.6311 H         1 UNK         0.0000 
      9 H9         -7.9249    1.6084   -0.9131 H         1 UNK         0.0000 
     10 C10        -7.6506   -0.9714   -0.0545 C.3       1 UNK         0.0000 
     11 H11        -8.7080   -1.1122    0.1883 H         1 UNK         0.0000 
     12 H12        -7.5583   -0.8769   -1.1407 H         1 UNK         0.0000 
     13 H13        -7.0934   -1.8473    0.2791 H         1 UNK         0.0000 
     14 O14        -5.8056    0.6276    0.1532 O.3       1 UNK         0.0000 
     15 C15        -4.7764   -0.2082    0.3667 C.2       1 UNK         0.0000 
     16 O16        -4.8345   -1.2848    0.9390 O.2       1 UNK         0.0000 
     17 N17        -3.6264    0.3246   -0.1301 N.am      1 UNK         0.0000 
     18 H18        -3.6934    1.1303   -0.7399 H         1 UNK         0.0000 
     19 C19        -2.4172   -0.4730   -0.1959 C.3       1 UNK         0.0000 
     20 C20        -1.2469    0.5025   -0.3119 C.2       1 UNK         0.0000 
     21 N21        -0.2988    0.4412    0.6395 N.am      1 UNK         0.0000 
     22 H22        -0.3491   -0.2207    1.4066 H         1 UNK         0.0000 
     23 O23        -1.1979    1.2956   -1.2532 O.2       1 UNK         0.0000 
     24 H24        -2.3488   -1.0578    0.7260 H         1 UNK         0.0000 
     25 C25        -2.4323   -1.4266   -1.4137 C.3       1 UNK         0.0000 
     26 H26        -2.5754   -0.8143   -2.3101 H         1 UNK         0.0000 
     27 H27        -3.3000   -2.0836   -1.3007 H         1 UNK         0.0000 
     28 C28        -1.1562   -2.2227   -1.5151 C.ar      1 UNK         0.0000 
     29 C29        -0.0493   -1.6866   -2.1859 C.ar      1 UNK         0.0000 
     30 C30         1.1838   -2.3258   -2.1488 C.ar      1 UNK         0.0000 
     31 H31         2.0559   -1.8910   -2.6282 H         1 UNK         0.0000 
     32 H32        -0.1503   -0.7405   -2.7116 H         1 UNK         0.0000 
     33 C33        -1.0161   -3.4536   -0.8680 C.ar      1 UNK         0.0000 
     34 H34        -1.8717   -3.8921   -0.3604 H         1 UNK         0.0000 
     35 C35         0.2155   -4.1107   -0.8286 C.ar      1 UNK         0.0000 
     36 H36         0.3400   -5.0467   -0.2934 H         1 UNK         0.0000 
     37 C37         1.3129   -3.5167   -1.4376 C.ar      1 UNK         0.0000 
     38 O38         2.5851   -4.0677   -1.2728 O.3       1 UNK         0.0000 
     39 C39         3.3534   -3.2464   -0.4629 C.ar      1 UNK         0.0000 
     40 C40         4.5241   -2.6865   -0.9680 C.ar      1 UNK         0.0000 
     41 C41         5.1808   -1.7115   -0.2195 C.ar      1 UNK         0.0000 
     42 H42         6.0596   -1.2133   -0.6177 H         1 UNK         0.0000 
     43 H43         4.8651   -2.9655   -1.9594 H         1 UNK         0.0000 
     44 C44         2.8991   -2.9357    0.8188 C.ar      1 UNK         0.0000 
     45 H45         2.0037   -3.4114    1.2044 H         1 UNK         0.0000 
     46 C46         3.5455   -1.9503    1.5463 C.ar      1 UNK         0.0000 
     47 H47         3.1434   -1.6620    2.5106 H         1 UNK         0.0000 
     48 C48         4.6625   -1.2979    1.0121 C.ar      1 UNK         0.0000 
     49 C49         5.2166   -0.0818    1.6710 C.2       1 UNK         0.0000 
     50 O50         6.3823    0.2490    1.5651 O.2       1 UNK         0.0000 
     51 C51         4.2128    0.8217    2.4045 C.3       1 UNK         0.0000 
     52 H52         3.7866    0.3073    3.2705 H         1 UNK         0.0000 
     53 H53         4.7526    1.7066    2.7474 H         1 UNK         0.0000 
     54 N54         3.1277    1.1994    1.5185 N.am      1 UNK         0.0000 
     55 H55         3.3029    1.8648    0.7585 H         1 UNK         0.0000 
     56 C56         1.8666    0.7430    1.6374 C.2       1 UNK         0.0000 
     57 O57         1.4733    0.0024    2.5373 O.2       1 UNK         0.0000 
     58 C58         0.9088    1.2373    0.5439 C.3       1 UNK         0.0000 
     59 H59         1.3690    1.0536   -0.4353 H         1 UNK         0.0000 
     60 C60         0.6279    2.7578    0.6806 C.3       1 UNK         0.0000 
     61 H61         0.8655    3.0888    1.6992 H         1 UNK         0.0000 
     62 H62        -0.4386    2.9266    0.5253 H         1 UNK         0.0000 
     63 C63         1.4057    3.5951   -0.3072 C.ar      1 UNK         0.0000 
     64 C64         0.8006    4.6586   -0.9814 C.ar      1 UNK         0.0000 
     65 H65        -0.2490    4.8766   -0.8146 H         1 UNK         0.0000 
     66 C66         1.5586    5.4156   -1.8680 C.ar      1 UNK         0.0000 
     67 H67         1.1090    6.2452   -2.4044 H         1 UNK         0.0000 
     68 C68         2.8979    5.0868   -2.0627 C.ar      1 UNK         0.0000 
     69 H69         3.5263    5.6459   -2.7462 H         1 UNK         0.0000 
     70 C70         3.4168    4.0066   -1.3565 C.ar      1 UNK         0.0000 
     71 H71         4.4548    3.7096   -1.4802 H         1 UNK         0.0000 
     72 N72         2.6939    3.2774   -0.4994 N.ar      1 UNK         0.0000 
@<TRIPOS>BOND
     1    1    4 1    
     2    1    3 1    
     3    1    2 1    
     4    1    5 1    
     5    5    6 1    
     6    5   10 1    
     7    5   14 1    
     8    6    7 1    
     9    6    8 1    
    10    6    9 1    
    11   10   11 1    
    12   10   13 1    
    13   10   12 1    
    14   14   15 1    
    15   15   16 2    
    16   15   17 am   BACKBONE|DICT|INTERRES
    17   17   18 1    
    18   17   19 1    
    19   19   24 1    
    20   19   20 1    
    21   19   25 1    
    22   20   21 am   BACKBONE|DICT|INTERRES
    23   20   23 2    
    24   21   22 1    
    25   21   58 1    
    26   25   27 1    
    27   25   26 1    
    28   25   28 1    
    29   28   33 ar   
    30   28   29 ar   
    31   29   30 ar   
    32   29   32 1    
    33   30   37 ar   
    34   30   31 1    
    35   33   35 ar   
    36   33   34 1    
    37   35   36 1    
    38   35   37 ar   
    39   37   38 1    
    40   38   39 1    
    41   39   44 ar   
    42   39   40 ar   
    43   40   41 ar   
    44   40   43 1    
    45   41   48 ar   
    46   41   42 1    
    47   44   45 1    
    48   44   46 ar   
    49   46   47 1    
    50   46   48 ar   
    51   48   49 1    
    52   49   51 1    
    53   49   50 2    
    54   51   53 1    
    55   51   52 1    
    56   51   54 1    
    57   54   56 am   BACKBONE|DICT|INTERRES
    58   54   55 1    
    59   56   57 2    
    60   56   58 1    
    61   58   59 1    
    62   58   60 1    
    63   60   61 1    
    64   60   62 1    
    65   60   63 1    
    66   63   64 ar   
    67   63   72 ar   
    68   64   65 1    
    69   64   66 ar   
    70   66   67 1    
    71   66   68 ar   
    72   68   70 ar   
    73   68   69 1    
    74   70   72 ar   
    75   70   71 1    
@<TRIPOS>SUBSTRUCTURE
     1 UNK         1 GROUP             0       ****    0 ROOT    
@<TRIPOS>MOLECULE
Cpd5-3500
72   75    1
SMALL
USER_CHARGES


@<TRIPOS>ATOM
      1 C1         -7.9663    1.5056    0.1756 C.3       1 UNK         0.0000 
      2 H2         -7.5799    2.4208    0.6325 H         1 UNK         0.0000 
      3 H3         -7.9246    1.6103   -0.9121 H         1 UNK         0.0000 
      4 H4         -9.0095    1.3773    0.4756 H         1 UNK         0.0000 
      5 C5         -7.1495    0.2998    0.6261 C.3       1 UNK         0.0000 
      6 C6         -7.6508   -0.9701   -0.0555 C.3       1 UNK         0.0000 
      7 H7         -7.5581   -0.8749   -1.1416 H         1 UNK         0.0000 
      8 H8         -7.0939   -1.8464    0.2775 H         1 UNK         0.0000 
      9 H9         -8.7082   -1.1108    0.1868 H         1 UNK         0.0000 
     10 C10        -7.1585    0.1853    2.1476 C.3       1 UNK         0.0000 
     11 H11        -8.1928    0.0917    2.4918 H         1 UNK         0.0000 
     12 H12        -6.5953   -0.6858    2.4837 H         1 UNK         0.0000 
     13 H13        -6.7289    1.0871    2.5945 H         1 UNK         0.0000 
     14 O14        -5.8054    0.6282    0.1538 O.3       1 UNK         0.0000 
     15 C15        -4.7765   -0.2080    0.3667 C.2       1 UNK         0.0000 
     16 O16        -4.8347   -1.2849    0.9384 O.2       1 UNK         0.0000 
     17 N17        -3.6262    0.3246   -0.1302 N.am      1 UNK         0.0000 
     18 H18        -3.6931    1.1308   -0.7390 H         1 UNK         0.0000 
     19 C19        -2.4171   -0.4731   -0.1960 C.3       1 UNK         0.0000 
     20 C20        -1.2469    0.5025   -0.3120 C.2       1 UNK         0.0000 
     21 N21        -0.2987    0.4409    0.6395 N.am      1 UNK         0.0000 
     22 H22        -0.3490   -0.2212    1.4064 H         1 UNK         0.0000 
     23 O23        -1.1980    1.2959   -1.2530 O.2       1 UNK         0.0000 
     24 H24        -2.3489   -1.0579    0.7257 H         1 UNK         0.0000 
     25 C25        -2.4322   -1.4265   -1.4139 C.3       1 UNK         0.0000 
     26 H26        -2.5753   -0.8141   -2.3102 H         1 UNK         0.0000 
     27 H27        -3.3000   -2.0835   -1.3011 H         1 UNK         0.0000 
     28 C28        -1.1562   -2.2226   -1.5153 C.ar      1 UNK         0.0000 
     29 C29        -0.0493   -1.6866   -2.1861 C.ar      1 UNK         0.0000 
     30 C30         1.1838   -2.3259   -2.1489 C.ar      1 UNK         0.0000 
     31 H31         2.0559   -1.8911   -2.6282 H         1 UNK         0.0000 
     32 H32        -0.1501   -0.7405   -2.7118 H         1 UNK         0.0000 
     33 C33        -1.0162   -3.4534   -0.8680 C.ar      1 UNK         0.0000 
     34 H34        -1.8718   -3.8919   -0.3604 H         1 UNK         0.0000 
     35 C35         0.2154   -4.1107   -0.8285 C.ar      1 UNK         0.0000 
     36 H36         0.3399   -5.0465   -0.2931 H         1 UNK         0.0000 
     37 C37         1.3128   -3.5166   -1.4375 C.ar      1 UNK         0.0000 
     38 O38         2.5850   -4.0677   -1.2726 O.3       1 UNK         0.0000 
     39 C39         3.3533   -3.2464   -0.4628 C.ar      1 UNK         0.0000 
     40 C40         4.5240   -2.6864   -0.9681 C.ar      1 UNK         0.0000 
     41 C41         5.1807   -1.7114   -0.2196 C.ar      1 UNK         0.0000 
     42 H42         6.0594   -1.2131   -0.6178 H         1 UNK         0.0000 
     43 H43         4.8650   -2.9654   -1.9595 H         1 UNK         0.0000 
     44 C44         2.8993   -2.9357    0.8190 C.ar      1 UNK         0.0000 
     45 H45         2.0039   -3.4116    1.2047 H         1 UNK         0.0000 
     46 C46         3.5457   -1.9503    1.5464 C.ar      1 UNK         0.0000 
     47 H47         3.1437   -1.6620    2.5108 H         1 UNK         0.0000 
     48 C48         4.6625   -1.2978    1.0121 C.ar      1 UNK         0.0000 
     49 C49         5.2166   -0.0818    1.6710 C.2       1 UNK         0.0000 
     50 O50         6.3823    0.2491    1.5650 O.2       1 UNK         0.0000 
     51 C51         4.2127    0.8218    2.4044 C.3       1 UNK         0.0000 
     52 H52         3.7868    0.3074    3.2705 H         1 UNK         0.0000 
     53 H53         4.7527    1.7067    2.7472 H         1 UNK         0.0000 
     54 N54         3.1276    1.1995    1.5186 N.am      1 UNK         0.0000 
     55 H55         3.3027    1.8649    0.7586 H         1 UNK         0.0000 
     56 C56         1.8666    0.7429    1.6374 C.2       1 UNK         0.0000 
     57 O57         1.4734    0.0022    2.5372 O.2       1 UNK         0.0000 
     58 C58         0.9086    1.2372    0.5440 C.3       1 UNK         0.0000 
     59 H59         1.3690    1.0538   -0.4353 H         1 UNK         0.0000 
     60 C60         0.6275    2.7576    0.6811 C.3       1 UNK         0.0000 
     61 H61         0.8651    3.0884    1.6997 H         1 UNK         0.0000 
     62 H62        -0.4390    2.9262    0.5259 H         1 UNK         0.0000 
     63 C63         1.4052    3.5952   -0.3065 C.ar      1 UNK         0.0000 
     64 C64         0.7997    4.6588   -0.9803 C.ar      1 UNK         0.0000 
     65 H65        -0.2498    4.8767   -0.8133 H         1 UNK         0.0000 
     66 C66         1.5575    5.4162   -1.8669 C.ar      1 UNK         0.0000 
     67 H67         1.1078    6.2459   -2.4030 H         1 UNK         0.0000 
     68 C68         2.8969    5.0876   -2.0618 C.ar      1 UNK         0.0000 
     69 H69         3.5251    5.6470   -2.7453 H         1 UNK         0.0000 
     70 C70         3.4160    4.0074   -1.3560 C.ar      1 UNK         0.0000 
     71 H71         4.4541    3.7105   -1.4798 H         1 UNK         0.0000 
     72 N72         2.6933    3.2778   -0.4990 N.ar      1 UNK         0.0000 
@<TRIPOS>BOND
     1    1    4 1    
     2    1    5 1    
     3    1    2 1    
     4    1    3 1    
     5    5   10 1    
     6    5    6 1    
     7    5   14 1    
     8    6    9 1    
     9    6    8 1    
    10    6    7 1    
    11   10   12 1    
    12   10   11 1    
    13   10   13 1    
    14   14   15 1    
    15   15   16 2    
    16   15   17 am   BACKBONE|DICT|INTERRES
    17   17   18 1    
    18   17   19 1    
    19   19   24 1    
    20   19   20 1    
    21   19   25 1    
    22   20   21 am   BACKBONE|DICT|INTERRES
    23   20   23 2    
    24   21   22 1    
    25   21   58 1    
    26   25   27 1    
    27   25   26 1    
    28   25   28 1    
    29   28   33 ar   
    30   28   29 ar   
    31   29   30 ar   
    32   29   32 1    
    33   30   37 ar   
    34   30   31 1    
    35   33   35 ar   
    36   33   34 1    
    37   35   36 1    
    38   35   37 ar   
    39   37   38 1    
    40   38   39 1    
    41   39   44 ar   
    42   39   40 ar   
    43   40   41 ar   
    44   40   43 1    
    45   41   48 ar   
    46   41   42 1    
    47   44   45 1    
    48   44   46 ar   
    49   46   47 1    
    50   46   48 ar   
    51   48   49 1    
    52   49   51 1    
    53   49   50 2    
    54   51   53 1    
    55   51   52 1    
    56   51   54 1    
    57   54   56 am   BACKBONE|DICT|INTERRES
    58   54   55 1    
    59   56   57 2    
    60   56   58 1    
    61   58   59 1    
    62   58   60 1    
    63   60   61 1    
    64   60   62 1    
    65   60   63 1    
    66   63   64 ar   
    67   63   72 ar   
    68   64   65 1    
    69   64   66 ar   
    70   66   67 1    
    71   66   68 ar   
    72   68   70 ar   
    73   68   69 1    
    74   70   72 ar   
    75   70   71 1    
@<TRIPOS>SUBSTRUCTURE
     1 UNK         1 GROUP             0       ****    0 ROOT    
@<TRIPOS>MOLECULE
Cpd5-4000
72   75    1
SMALL
USER_CHARGES


@<TRIPOS>ATOM
      1 C1         -7.9659    1.5064    0.1765 C.3       1 UNK         0.0000 
      2 H2         -7.9244    1.6112   -0.9112 H         1 UNK         0.0000 
      3 H3         -9.0092    1.3783    0.4767 H         1 UNK         0.0000 
      4 H4         -7.5793    2.4215    0.6334 H         1 UNK         0.0000 
      5 C5         -7.1493    0.3004    0.6268 C.3       1 UNK         0.0000 
      6 C6         -7.6511   -0.9694   -0.0545 C.3       1 UNK         0.0000 
      7 H7         -7.0940   -1.8458    0.2781 H         1 UNK         0.0000 
      8 H8         -8.7085   -1.1100    0.1884 H         1 UNK         0.0000 
      9 H9         -7.5590   -0.8740   -1.1408 H         1 UNK         0.0000 
     10 C10        -7.1578    0.1861    2.1483 C.3       1 UNK         0.0000 
     11 H11        -6.5951   -0.6853    2.4843 H         1 UNK         0.0000 
     12 H12        -6.7275    1.0876    2.5950 H         1 UNK         0.0000 
     13 H13        -8.1920    0.0931    2.4928 H         1 UNK         0.0000 
     14 O14        -5.8053    0.6285    0.1539 O.3       1 UNK         0.0000 
     15 C15        -4.7764   -0.2078    0.3667 C.2       1 UNK         0.0000 
     16 O16        -4.8348   -1.2847    0.9385 O.2       1 UNK         0.0000 
     17 N17        -3.6263    0.3246   -0.1303 N.am      1 UNK         0.0000 
     18 H18        -3.6930    1.1310   -0.7390 H         1 UNK         0.0000 
     19 C19        -2.4171   -0.4731   -0.1961 C.3       1 UNK         0.0000 
     20 C20        -1.2468    0.5025   -0.3120 C.2       1 UNK         0.0000 
     21 N21        -0.2987    0.4408    0.6394 N.am      1 UNK         0.0000 
     22 H22        -0.3490   -0.2212    1.4063 H         1 UNK         0.0000 
     23 O23        -1.1979    1.2959   -1.2530 O.2       1 UNK         0.0000 
     24 H24        -2.3488   -1.0579    0.7257 H         1 UNK         0.0000 
     25 C25        -2.4322   -1.4266   -1.4139 C.3       1 UNK         0.0000 
     26 H26        -2.5753   -0.8142   -2.3103 H         1 UNK         0.0000 
     27 H27        -3.3000   -2.0835   -1.3011 H         1 UNK         0.0000 
     28 C28        -1.1562   -2.2226   -1.5153 C.ar      1 UNK         0.0000 
     29 C29        -0.0493   -1.6866   -2.1861 C.ar      1 UNK         0.0000 
     30 C30         1.1838   -2.3259   -2.1488 C.ar      1 UNK         0.0000 
     31 H31         2.0559   -1.8912   -2.6282 H         1 UNK         0.0000 
     32 H32        -0.1502   -0.7406   -2.7118 H         1 UNK         0.0000 
     33 C33        -1.0162   -3.4535   -0.8681 C.ar      1 UNK         0.0000 
     34 H34        -1.8718   -3.8918   -0.3604 H         1 UNK         0.0000 
     35 C35         0.2154   -4.1106   -0.8285 C.ar      1 UNK         0.0000 
     36 H36         0.3399   -5.0466   -0.2931 H         1 UNK         0.0000 
     37 C37         1.3128   -3.5166   -1.4375 C.ar      1 UNK         0.0000 
     38 O38         2.5849   -4.0677   -1.2725 O.3       1 UNK         0.0000 
     39 C39         3.3534   -3.2464   -0.4628 C.ar      1 UNK         0.0000 
     40 C40         4.5239   -2.6863   -0.9682 C.ar      1 UNK         0.0000 
     41 C41         5.1807   -1.7113   -0.2196 C.ar      1 UNK         0.0000 
     42 H42         6.0593   -1.2130   -0.6179 H         1 UNK         0.0000 
     43 H43         4.8648   -2.9653   -1.9595 H         1 UNK         0.0000 
     44 C44         2.8993   -2.9358    0.8191 C.ar      1 UNK         0.0000 
     45 H45         2.0040   -3.4118    1.2048 H         1 UNK         0.0000 
     46 C46         3.5458   -1.9504    1.5465 C.ar      1 UNK         0.0000 
     47 H47         3.1437   -1.6620    2.5108 H         1 UNK         0.0000 
     48 C48         4.6625   -1.2978    1.0120 C.ar      1 UNK         0.0000 
     49 C49         5.2165   -0.0817    1.6709 C.2       1 UNK         0.0000 
     50 O50         6.3822    0.2492    1.5649 O.2       1 UNK         0.0000 
     51 C51         4.2128    0.8218    2.4045 C.3       1 UNK         0.0000 
     52 H52         3.7868    0.3074    3.2705 H         1 UNK         0.0000 
     53 H53         4.7527    1.7067    2.7473 H         1 UNK         0.0000 
     54 N54         3.1276    1.1994    1.5186 N.am      1 UNK         0.0000 
     55 H55         3.3027    1.8649    0.7586 H         1 UNK         0.0000 
     56 C56         1.8667    0.7429    1.6374 C.2       1 UNK         0.0000 
     57 O57         1.4734    0.0020    2.5371 O.2       1 UNK         0.0000 
     58 C58         0.9087    1.2372    0.5440 C.3       1 UNK         0.0000 
     59 H59         1.3690    1.0538   -0.4353 H         1 UNK         0.0000 
     60 C60         0.6276    2.7577    0.6811 C.3       1 UNK         0.0000 
     61 H61         0.8652    3.0884    1.6997 H         1 UNK         0.0000 
     62 H62        -0.4390    2.9263    0.5258 H         1 UNK         0.0000 
     63 C63         1.4052    3.5953   -0.3065 C.ar      1 UNK         0.0000 
     64 C64         0.7999    4.6590   -0.9802 C.ar      1 UNK         0.0000 
     65 H65        -0.2496    4.8769   -0.8131 H         1 UNK         0.0000 
     66 C66         1.5577    5.4165   -1.8667 C.ar      1 UNK         0.0000 
     67 H67         1.1080    6.2462   -2.4026 H         1 UNK         0.0000 
     68 C68         2.8970    5.0878   -2.0616 C.ar      1 UNK         0.0000 
     69 H69         3.5253    5.6472   -2.7450 H         1 UNK         0.0000 
     70 C70         3.4160    4.0073   -1.3559 C.ar      1 UNK         0.0000 
     71 H71         4.4541    3.7105   -1.4798 H         1 UNK         0.0000 
     72 N72         2.6933    3.2778   -0.4990 N.ar      1 UNK         0.0000 
@<TRIPOS>BOND
     1    1    3 1    
     2    1    5 1    
     3    1    4 1    
     4    1    2 1    
     5    5   10 1    
     6    5    6 1    
     7    5   14 1    
     8    6    8 1    
     9    6    7 1    
    10    6    9 1    
    11   10   11 1    
    12   10   13 1    
    13   10   12 1    
    14   14   15 1    
    15   15   16 2    
    16   15   17 am   BACKBONE|DICT|INTERRES
    17   17   18 1    
    18   17   19 1    
    19   19   24 1    
    20   19   20 1    
    21   19   25 1    
    22   20   21 am   BACKBONE|DICT|INTERRES
    23   20   23 2    
    24   21   22 1    
    25   21   58 1    
    26   25   27 1    
    27   25   26 1    
    28   25   28 1    
    29   28   33 ar   
    30   28   29 ar   
    31   29   30 ar   
    32   29   32 1    
    33   30   37 ar   
    34   30   31 1    
    35   33   35 ar   
    36   33   34 1    
    37   35   36 1    
    38   35   37 ar   
    39   37   38 1    
    40   38   39 1    
    41   39   44 ar   
    42   39   40 ar   
    43   40   41 ar   
    44   40   43 1    
    45   41   48 ar   
    46   41   42 1    
    47   44   45 1    
    48   44   46 ar   
    49   46   47 1    
    50   46   48 ar   
    51   48   49 1    
    52   49   51 1    
    53   49   50 2    
    54   51   53 1    
    55   51   52 1    
    56   51   54 1    
    57   54   56 am   BACKBONE|DICT|INTERRES
    58   54   55 1    
    59   56   57 2    
    60   56   58 1    
    61   58   59 1    
    62   58   60 1    
    63   60   61 1    
    64   60   62 1    
    65   60   63 1    
    66   63   64 ar   
    67   63   72 ar   
    68   64   65 1    
    69   64   66 ar   
    70   66   67 1    
    71   66   68 ar   
    72   68   70 ar   
    73   68   69 1    
    74   70   72 ar   
    75   70   71 1    
@<TRIPOS>SUBSTRUCTURE
     1 UNK         1 GROUP             0       ****    0 ROOT    
@<TRIPOS>MOLECULE
Cpd5-4500
72   75    1
SMALL
USER_CHARGES


@<TRIPOS>ATOM
      1 C1         -7.9660    1.5062    0.1770 C.3       1 UNK         0.0000 
      2 H2         -7.5791    2.4216    0.6332 H         1 UNK         0.0000 
      3 H3         -7.9249    1.6105   -0.9108 H         1 UNK         0.0000 
      4 H4         -9.0091    1.3783    0.4776 H         1 UNK         0.0000 
      5 C5         -7.1491    0.3006    0.6276 C.3       1 UNK         0.0000 
      6 C6         -7.6511   -0.9696   -0.0530 C.3       1 UNK         0.0000 
      7 H7         -7.5591   -0.8749   -1.1393 H         1 UNK         0.0000 
      8 H8         -7.0943   -1.8458    0.2800 H         1 UNK         0.0000 
      9 H9         -8.7085   -1.1099    0.1900 H         1 UNK         0.0000 
     10 C10        -7.1571    0.1869    2.1491 C.3       1 UNK         0.0000 
     11 H11        -6.5941   -0.6843    2.4853 H         1 UNK         0.0000 
     12 H12        -6.7270    1.0886    2.5953 H         1 UNK         0.0000 
     13 H13        -8.1913    0.0937    2.4940 H         1 UNK         0.0000 
     14 O14        -5.8053    0.6285    0.1542 O.3       1 UNK         0.0000 
     15 C15        -4.7763   -0.2077    0.3671 C.2       1 UNK         0.0000 
     16 O16        -4.8346   -1.2844    0.9391 O.2       1 UNK         0.0000 
     17 N17        -3.6262    0.3246   -0.1302 N.am      1 UNK         0.0000 
     18 H18        -3.6931    1.1308   -0.7392 H         1 UNK         0.0000 
     19 C19        -2.4171   -0.4731   -0.1961 C.3       1 UNK         0.0000 
     20 C20        -1.2468    0.5024   -0.3121 C.2       1 UNK         0.0000 
     21 N21        -0.2987    0.4410    0.6395 N.am      1 UNK         0.0000 
     22 H22        -0.3490   -0.2211    1.4064 H         1 UNK         0.0000 
     23 O23        -1.1978    1.2958   -1.2531 O.2       1 UNK         0.0000 
     24 H24        -2.3488   -1.0579    0.7257 H         1 UNK         0.0000 
     25 C25        -2.4323   -1.4266   -1.4139 C.3       1 UNK         0.0000 
     26 H26        -2.5753   -0.8142   -2.3103 H         1 UNK         0.0000 
     27 H27        -3.2999   -2.0835   -1.3011 H         1 UNK         0.0000 
     28 C28        -1.1562   -2.2226   -1.5153 C.ar      1 UNK         0.0000 
     29 C29        -0.0493   -1.6866   -2.1861 C.ar      1 UNK         0.0000 
     30 C30         1.1838   -2.3259   -2.1488 C.ar      1 UNK         0.0000 
     31 H31         2.0559   -1.8911   -2.6282 H         1 UNK         0.0000 
     32 H32        -0.1502   -0.7405   -2.7118 H         1 UNK         0.0000 
     33 C33        -1.0162   -3.4535   -0.8680 C.ar      1 UNK         0.0000 
     34 H34        -1.8719   -3.8919   -0.3604 H         1 UNK         0.0000 
     35 C35         0.2153   -4.1106   -0.8285 C.ar      1 UNK         0.0000 
     36 H36         0.3398   -5.0465   -0.2932 H         1 UNK         0.0000 
     37 C37         1.3128   -3.5166   -1.4375 C.ar      1 UNK         0.0000 
     38 O38         2.5850   -4.0677   -1.2725 O.3       1 UNK         0.0000 
     39 C39         3.3534   -3.2464   -0.4628 C.ar      1 UNK         0.0000 
     40 C40         4.5239   -2.6863   -0.9682 C.ar      1 UNK         0.0000 
     41 C41         5.1807   -1.7113   -0.2196 C.ar      1 UNK         0.0000 
     42 H42         6.0593   -1.2129   -0.6179 H         1 UNK         0.0000 
     43 H43         4.8648   -2.9652   -1.9595 H         1 UNK         0.0000 
     44 C44         2.8993   -2.9358    0.8190 C.ar      1 UNK         0.0000 
     45 H45         2.0040   -3.4117    1.2047 H         1 UNK         0.0000 
     46 C46         3.5457   -1.9504    1.5465 C.ar      1 UNK         0.0000 
     47 H47         3.1438   -1.6621    2.5108 H         1 UNK         0.0000 
     48 C48         4.6625   -1.2978    1.0120 C.ar      1 UNK         0.0000 
     49 C49         5.2165   -0.0817    1.6709 C.2       1 UNK         0.0000 
     50 O50         6.3822    0.2492    1.5649 O.2       1 UNK         0.0000 
     51 C51         4.2128    0.8218    2.4045 C.3       1 UNK         0.0000 
     52 H52         3.7868    0.3073    3.2706 H         1 UNK         0.0000 
     53 H53         4.7526    1.7066    2.7473 H         1 UNK         0.0000 
     54 N54         3.1277    1.1995    1.5187 N.am      1 UNK         0.0000 
     55 H55         3.3027    1.8649    0.7586 H         1 UNK         0.0000 
     56 C56         1.8666    0.7429    1.6375 C.2       1 UNK         0.0000 
     57 O57         1.4734    0.0021    2.5373 O.2       1 UNK         0.0000 
     58 C58         0.9087    1.2372    0.5441 C.3       1 UNK         0.0000 
     59 H59         1.3691    1.0538   -0.4353 H         1 UNK         0.0000 
     60 C60         0.6276    2.7577    0.6810 C.3       1 UNK         0.0000 
     61 H61         0.8652    3.0885    1.6996 H         1 UNK         0.0000 
     62 H62        -0.4389    2.9263    0.5257 H         1 UNK         0.0000 
     63 C63         1.4054    3.5953   -0.3066 C.ar      1 UNK         0.0000 
     64 C64         0.8001    4.6589   -0.9804 C.ar      1 UNK         0.0000 
     65 H65        -0.2495    4.8768   -0.8133 H         1 UNK         0.0000 
     66 C66         1.5580    5.4163   -1.8668 C.ar      1 UNK         0.0000 
     67 H67         1.1084    6.2460   -2.4028 H         1 UNK         0.0000 
     68 C68         2.8973    5.0876   -2.0617 C.ar      1 UNK         0.0000 
     69 H69         3.5256    5.6470   -2.7451 H         1 UNK         0.0000 
     70 C70         3.4162    4.0072   -1.3559 C.ar      1 UNK         0.0000 
     71 H71         4.4544    3.7103   -1.4798 H         1 UNK         0.0000 
     72 N72         2.6935    3.2777   -0.4991 N.ar      1 UNK         0.0000 
@<TRIPOS>BOND
     1    1    4 1    
     2    1    5 1    
     3    1    2 1    
     4    1    3 1    
     5    5   10 1    
     6    5    6 1    
     7    5   14 1    
     8    6    9 1    
     9    6    8 1    
    10    6    7 1    
    11   10   11 1    
    12   10   13 1    
    13   10   12 1    
    14   14   15 1    
    15   15   16 2    
    16   15   17 am   BACKBONE|DICT|INTERRES
    17   17   18 1    
    18   17   19 1    
    19   19   24 1    
    20   19   20 1    
    21   19   25 1    
    22   20   21 am   BACKBONE|DICT|INTERRES
    23   20   23 2    
    24   21   22 1    
    25   21   58 1    
    26   25   27 1    
    27   25   26 1    
    28   25   28 1    
    29   28   33 ar   
    30   28   29 ar   
    31   29   30 ar   
    32   29   32 1    
    33   30   37 ar   
    34   30   31 1    
    35   33   35 ar   
    36   33   34 1    
    37   35   36 1    
    38   35   37 ar   
    39   37   38 1    
    40   38   39 1    
    41   39   44 ar   
    42   39   40 ar   
    43   40   41 ar   
    44   40   43 1    
    45   41   48 ar   
    46   41   42 1    
    47   44   45 1    
    48   44   46 ar   
    49   46   47 1    
    50   46   48 ar   
    51   48   49 1    
    52   49   51 1    
    53   49   50 2    
    54   51   53 1    
    55   51   52 1    
    56   51   54 1    
    57   54   56 am   BACKBONE|DICT|INTERRES
    58   54   55 1    
    59   56   57 2    
    60   56   58 1    
    61   58   59 1    
    62   58   60 1    
    63   60   61 1    
    64   60   62 1    
    65   60   63 1    
    66   63   64 ar   
    67   63   72 ar   
    68   64   65 1    
    69   64   66 ar   
    70   66   67 1    
    71   66   68 ar   
    72   68   70 ar   
    73   68   69 1    
    74   70   72 ar   
    75   70   71 1    
@<TRIPOS>SUBSTRUCTURE
     1 UNK         1 GROUP             0       ****    0 ROOT    
@<TRIPOS>MOLECULE
Cpd5-5000
72   75    1
SMALL
USER_CHARGES


@<TRIPOS>ATOM
      1 C1         -7.9662    1.5055    0.1763 C.3       1 UNK         0.0000 
      2 H2         -9.0094    1.3774    0.4767 H         1 UNK         0.0000 
      3 H3         -7.5795    2.4208    0.6331 H         1 UNK         0.0000 
      4 H4         -7.9248    1.6101   -0.9114 H         1 UNK         0.0000 
      5 C5         -7.1493    0.2997    0.6268 C.3       1 UNK         0.0000 
      6 C6         -7.6510   -0.9703   -0.0544 C.3       1 UNK         0.0000 
      7 H7         -7.0941   -1.8465    0.2785 H         1 UNK         0.0000 
      8 H8         -8.7084   -1.1108    0.1884 H         1 UNK         0.0000 
      9 H9         -7.5589   -0.8750   -1.1406 H         1 UNK         0.0000 
     10 C10        -7.1578    0.1857    2.1483 C.3       1 UNK         0.0000 
     11 H11        -6.7278    1.0872    2.5948 H         1 UNK         0.0000 
     12 H12        -8.1919    0.0924    2.4929 H         1 UNK         0.0000 
     13 H13        -6.5948   -0.6857    2.4844 H         1 UNK         0.0000 
     14 O14        -5.8055    0.6280    0.1538 O.3       1 UNK         0.0000 
     15 C15        -4.7764   -0.2082    0.3669 C.2       1 UNK         0.0000 
     16 O16        -4.8346   -1.2850    0.9386 O.2       1 UNK         0.0000 
     17 N17        -3.6262    0.3245   -0.1300 N.am      1 UNK         0.0000 
     18 H18        -3.6931    1.1307   -0.7391 H         1 UNK         0.0000 
     19 C19        -2.4171   -0.4732   -0.1959 C.3       1 UNK         0.0000 
     20 C20        -1.2469    0.5024   -0.3119 C.2       1 UNK         0.0000 
     21 N21        -0.2986    0.4409    0.6395 N.am      1 UNK         0.0000 
     22 H22        -0.3490   -0.2211    1.4065 H         1 UNK         0.0000 
     23 O23        -1.1980    1.2958   -1.2530 O.2       1 UNK         0.0000 
     24 H24        -2.3488   -1.0580    0.7258 H         1 UNK         0.0000 
     25 C25        -2.4323   -1.4266   -1.4139 C.3       1 UNK         0.0000 
     26 H26        -2.5754   -0.8142   -2.3102 H         1 UNK         0.0000 
     27 H27        -3.2999   -2.0835   -1.3009 H         1 UNK         0.0000 
     28 C28        -1.1562   -2.2226   -1.5153 C.ar      1 UNK         0.0000 
     29 C29        -0.0493   -1.6866   -2.1861 C.ar      1 UNK         0.0000 
     30 C30         1.1838   -2.3259   -2.1488 C.ar      1 UNK         0.0000 
     31 H31         2.0559   -1.8911   -2.6282 H         1 UNK         0.0000 
     32 H32        -0.1502   -0.7405   -2.7118 H         1 UNK         0.0000 
     33 C33        -1.0162   -3.4535   -0.8680 C.ar      1 UNK         0.0000 
     34 H34        -1.8718   -3.8920   -0.3605 H         1 UNK         0.0000 
     35 C35         0.2154   -4.1106   -0.8285 C.ar      1 UNK         0.0000 
     36 H36         0.3399   -5.0465   -0.2932 H         1 UNK         0.0000 
     37 C37         1.3128   -3.5166   -1.4375 C.ar      1 UNK         0.0000 
     38 O38         2.5850   -4.0676   -1.2727 O.3       1 UNK         0.0000 
     39 C39         3.3533   -3.2463   -0.4628 C.ar      1 UNK         0.0000 
     40 C40         4.5240   -2.6864   -0.9681 C.ar      1 UNK         0.0000 
     41 C41         5.1808   -1.7115   -0.2195 C.ar      1 UNK         0.0000 
     42 H42         6.0595   -1.2132   -0.6177 H         1 UNK         0.0000 
     43 H43         4.8651   -2.9655   -1.9595 H         1 UNK         0.0000 
     44 C44         2.8991   -2.9357    0.8189 C.ar      1 UNK         0.0000 
     45 H45         2.0038   -3.4115    1.2046 H         1 UNK         0.0000 
     46 C46         3.5456   -1.9503    1.5464 C.ar      1 UNK         0.0000 
     47 H47         3.1436   -1.6619    2.5107 H         1 UNK         0.0000 
     48 C48         4.6625   -1.2978    1.0121 C.ar      1 UNK         0.0000 
     49 C49         5.2166   -0.0818    1.6710 C.2       1 UNK         0.0000 
     50 O50         6.3823    0.2490    1.5651 O.2       1 UNK         0.0000 
     51 C51         4.2128    0.8218    2.4044 C.3       1 UNK         0.0000 
     52 H52         3.7868    0.3075    3.2705 H         1 UNK         0.0000 
     53 H53         4.7527    1.7068    2.7471 H         1 UNK         0.0000 
     54 N54         3.1277    1.1994    1.5185 N.am      1 UNK         0.0000 
     55 H55         3.3027    1.8650    0.7585 H         1 UNK         0.0000 
     56 C56         1.8666    0.7430    1.6374 C.2       1 UNK         0.0000 
     57 O57         1.4734    0.0023    2.5372 O.2       1 UNK         0.0000 
     58 C58         0.9087    1.2373    0.5440 C.3       1 UNK         0.0000 
     59 H59         1.3690    1.0541   -0.4353 H         1 UNK         0.0000 
     60 C60         0.6274    2.7577    0.6811 C.3       1 UNK         0.0000 
     61 H61         0.8649    3.0885    1.6999 H         1 UNK         0.0000 
     62 H62        -0.4391    2.9263    0.5258 H         1 UNK         0.0000 
     63 C63         1.4052    3.5956   -0.3062 C.ar      1 UNK         0.0000 
     64 C64         0.7999    4.6593   -0.9799 C.ar      1 UNK         0.0000 
     65 H65        -0.2496    4.8772   -0.8128 H         1 UNK         0.0000 
     66 C66         1.5577    5.4167   -1.8663 C.ar      1 UNK         0.0000 
     67 H67         1.1081    6.2465   -2.4023 H         1 UNK         0.0000 
     68 C68         2.8971    5.0881   -2.0612 C.ar      1 UNK         0.0000 
     69 H69         3.5254    5.6475   -2.7446 H         1 UNK         0.0000 
     70 C70         3.4161    4.0076   -1.3556 C.ar      1 UNK         0.0000 
     71 H71         4.4542    3.7108   -1.4794 H         1 UNK         0.0000 
     72 N72         2.6933    3.2780   -0.4987 N.ar      1 UNK         0.0000 
@<TRIPOS>BOND
     1    1    2 1    
     2    1    5 1    
     3    1    3 1    
     4    1    4 1    
     5    5   10 1    
     6    5    6 1    
     7    5   14 1    
     8    6    8 1    
     9    6    7 1    
    10    6    9 1    
    11   10   13 1    
    12   10   12 1    
    13   10   11 1    
    14   14   15 1    
    15   15   16 2    
    16   15   17 am   BACKBONE|DICT|INTERRES
    17   17   18 1    
    18   17   19 1    
    19   19   24 1    
    20   19   20 1    
    21   19   25 1    
    22   20   21 am   BACKBONE|DICT|INTERRES
    23   20   23 2    
    24   21   22 1    
    25   21   58 1    
    26   25   27 1    
    27   25   26 1    
    28   25   28 1    
    29   28   33 ar   
    30   28   29 ar   
    31   29   30 ar   
    32   29   32 1    
    33   30   37 ar   
    34   30   31 1    
    35   33   35 ar   
    36   33   34 1    
    37   35   36 1    
    38   35   37 ar   
    39   37   38 1    
    40   38   39 1    
    41   39   44 ar   
    42   39   40 ar   
    43   40   41 ar   
    44   40   43 1    
    45   41   48 ar   
    46   41   42 1    
    47   44   45 1    
    48   44   46 ar   
    49   46   47 1    
    50   46   48 ar   
    51   48   49 1    
    52   49   51 1    
    53   49   50 2    
    54   51   53 1    
    55   51   52 1    
    56   51   54 1    
    57   54   56 am   BACKBONE|DICT|INTERRES
    58   54   55 1    
    59   56   57 2    
    60   56   58 1    
    61   58   59 1    
    62   58   60 1    
    63   60   61 1    
    64   60   62 1    
    65   60   63 1    
    66   63   64 ar   
    67   63   72 ar   
    68   64   65 1    
    69   64   66 ar   
    70   66   67 1    
    71   66   68 ar   
    72   68   70 ar   
    73   68   69 1    
    74   70   72 ar   
    75   70   71 1    
@<TRIPOS>SUBSTRUCTURE
     1 UNK         1 GROUP             0       ****    0 ROOT    
