@<TRIPOS>MOLECULE
Cpd5-500-MEC
72   75    1
SMALL
USER_CHARGES


@<TRIPOS>ATOM
      1 C1         36.9050   37.0550   26.9770 C.3       1 UNK         0.0000 
      2 H2         36.4400   37.0830   25.9840 H         1 UNK         0.0000 
      3 H3         37.5810   36.1920   26.9310 H         1 UNK         0.0000 
      4 H4         36.1420   36.7320   27.6960 H         1 UNK         0.0000 
      5 C5         37.5400   38.3630   27.3280 C.3       1 UNK         0.0000 
      6 C6         36.5170   39.4260   27.0270 C.3       1 UNK         0.0000 
      7 H7         36.6060   39.5810   25.9440 H         1 UNK         0.0000 
      8 H8         35.5240   39.1420   27.3960 H         1 UNK         0.0000 
      9 H9         36.7840   40.3050   27.6250 H         1 UNK         0.0000 
     10 C10        38.8520   38.6460   26.6150 C.3       1 UNK         0.0000 
     11 H11        38.6750   38.8760   25.5570 H         1 UNK         0.0000 
     12 H12        39.3590   39.4950   27.0900 H         1 UNK         0.0000 
     13 H13        39.4970   37.7600   26.6620 H         1 UNK         0.0000 
     14 O14        37.7080   38.4360   28.7540 O.3       1 UNK         0.0000 
     15 C15        38.5140   37.6080   29.4190 C.2       1 UNK         0.0000 
     16 O16        39.1890   36.7120   29.0050 O.2       1 UNK         0.0000 
     17 N17        38.3160   37.8660   30.7250 N.am      1 UNK         0.0000 
     18 H18        37.4920   38.4410   30.8480 H         1 UNK         0.0000 
     19 C19        38.8320   37.1350   31.9470 C.3       1 UNK         0.0000 
     20 C20        37.9560   37.3860   33.1420 C.2       1 UNK         0.0000 
     21 N21        37.5070   36.3280   33.9160 N.am      1 UNK         0.0000 
     22 H22        37.9910   35.4530   33.7560 H         1 UNK         0.0000 
     23 O23        37.5410   38.5110   33.4340 O.2       1 UNK         0.0000 
     24 H24        38.8350   36.0460   31.8160 H         1 UNK         0.0000 
     25 C25        40.3550   37.4970   32.0510 C.3       1 UNK         0.0000 
     26 H26        40.5120   38.5810   32.1080 H         1 UNK         0.0000 
     27 H27        40.9110   37.1630   31.1670 H         1 UNK         0.0000 
     28 C28        40.9960   36.8510   33.2640 C.ar      1 UNK         0.0000 
     29 C29        41.2690   37.6500   34.3990 C.ar      1 UNK         0.0000 
     30 C30        41.6290   37.0460   35.6160 C.ar      1 UNK         0.0000 
     31 H31        41.8000   37.7020   36.4640 H         1 UNK         0.0000 
     32 H32        41.0470   38.7120   34.3340 H         1 UNK         0.0000 
     33 C33        41.1920   35.4460   33.3540 C.ar      1 UNK         0.0000 
     34 H34        40.9630   34.8070   32.5060 H         1 UNK         0.0000 
     35 C35        41.5260   34.8230   34.5630 C.ar      1 UNK         0.0000 
     36 H36        41.7400   33.7590   34.5910 H         1 UNK         0.0000 
     37 C37        41.7190   35.6350   35.7280 C.ar      1 UNK         0.0000 
     38 O38        41.9940   35.0280   36.8880 O.3       1 UNK         0.0000 
     39 C39        40.9460   34.8690   37.7320 C.ar      1 UNK         0.0000 
     40 C40        40.6130   35.7930   38.7880 C.ar      1 UNK         0.0000 
     41 C41        39.3590   35.6870   39.3360 C.ar      1 UNK         0.0000 
     42 H42        38.9590   36.3770   40.0730 H         1 UNK         0.0000 
     43 H43        41.2450   36.6170   39.1080 H         1 UNK         0.0000 
     44 C44        40.1490   33.7640   37.4510 C.ar      1 UNK         0.0000 
     45 H45        40.4690   33.0290   36.7180 H         1 UNK         0.0000 
     46 C46        38.8700   33.7110   37.9390 C.ar      1 UNK         0.0000 
     47 H47        38.2640   32.8600   37.6430 H         1 UNK         0.0000 
     48 C48        38.4980   34.6680   38.8690 C.ar      1 UNK         0.0000 
     49 C49        37.0850   34.6980   39.3120 C.2       1 UNK         0.0000 
     50 O50        36.8280   35.0240   40.4290 O.2       1 UNK         0.0000 
     51 C51        35.9180   34.6480   38.3300 C.3       1 UNK         0.0000 
     52 H52        35.8840   33.6420   37.8950 H         1 UNK         0.0000 
     53 H53        35.0010   34.8200   38.9080 H         1 UNK         0.0000 
     54 N54        36.1100   35.6180   37.2250 N.am      1 UNK         0.0000 
     55 H55        35.7320   36.5470   37.3660 H         1 UNK         0.0000 
     56 C56        36.4910   35.2870   35.9510 C.2       1 UNK         0.0000 
     57 O57        36.9210   34.1740   35.7180 O.2       1 UNK         0.0000 
     58 C58        36.3570   36.4140   34.9190 C.3       1 UNK         0.0000 
     59 H59        36.5040   37.4010   35.3730 H         1 UNK         0.0000 
     60 C60        35.0650   36.3420   34.1340 C.3       1 UNK         0.0000 
     61 H61        35.0510   35.3360   33.6970 H         1 UNK         0.0000 
     62 H62        35.1460   37.1060   33.3500 H         1 UNK         0.0000 
     63 C63        33.7980   36.7390   34.9280 C.ar      1 UNK         0.0000 
     64 C64        32.5440   36.3890   34.4220 C.ar      1 UNK         0.0000 
     65 H65        32.4540   35.7910   33.5210 H         1 UNK         0.0000 
     66 C66        31.4200   36.8690   35.0800 C.ar      1 UNK         0.0000 
     67 H67        30.4730   36.7560   34.5620 H         1 UNK         0.0000 
     68 C68        31.6100   37.4500   36.3080 C.ar      1 UNK         0.0000 
     69 H69        30.7190   37.8560   36.7790 H         1 UNK         0.0000 
     70 C70        32.9380   37.8520   36.7070 C.ar      1 UNK         0.0000 
     71 H71        33.1680   38.5350   37.5230 H         1 UNK         0.0000 
     72 N72        34.0180   37.5120   36.0070 N.ar      1 UNK         0.0000 
@<TRIPOS>BOND
     1    1    5 1    
     2    1    4 1    
     3    1    2 1    
     4    1    3 1    
     5    5   14 1    
     6    5    6 1    
     7    5   10 1    
     8    6    8 1    
     9    6    9 1    
    10    6    7 1    
    11   10   13 1    
    12   10   12 1    
    13   10   11 1    
    14   14   15 1    
    15   15   17 am   BACKBONE|DICT|INTERRES
    16   15   16 2    
    17   17   18 1    
    18   17   19 1    
    19   19   24 1    
    20   19   25 1    
    21   19   20 1    
    22   20   23 2    
    23   20   21 am   BACKBONE|DICT|INTERRES
    24   21   58 1    
    25   21   22 1    
    26   25   26 1    
    27   25   28 1    
    28   25   27 1    
    29   28   33 ar   
    30   28   29 ar   
    31   29   30 ar   
    32   29   32 1    
    33   30   37 ar   
    34   30   31 1    
    35   33   35 ar   
    36   33   34 1    
    37   35   36 1    
    38   35   37 ar   
    39   37   38 1    
    40   38   39 1    
    41   39   40 ar   
    42   39   44 ar   
    43   40   43 1    
    44   40   41 ar   
    45   41   42 1    
    46   41   48 ar   
    47   44   46 ar   
    48   44   45 1    
    49   46   48 ar   
    50   46   47 1    
    51   48   49 1    
    52   49   50 2    
    53   49   51 1    
    54   51   53 1    
    55   51   52 1    
    56   51   54 1    
    57   54   55 1    
    58   54   56 am   BACKBONE|DICT|INTERRES
    59   56   57 2    
    60   56   58 1    
    61   58   59 1    
    62   58   60 1    
    63   60   63 1    
    64   60   61 1    
    65   60   62 1    
    66   63   72 ar   
    67   63   64 ar   
    68   64   66 ar   
    69   64   65 1    
    70   66   68 ar   
    71   66   67 1    
    72   68   70 ar   
    73   68   69 1    
    74   70   71 1    
    75   70   72 ar   
@<TRIPOS>SUBSTRUCTURE
     1 UNK         1 GROUP             0       ****    0 ROOT    
@<TRIPOS>MOLECULE
Cpd5-1000
72   75    1
SMALL
USER_CHARGES


@<TRIPOS>ATOM
      1 C1         35.1043   35.0782   28.6598 C.3       1 UNK         0.0000 
      2 H2         35.1475   36.1484   28.8947 H         1 UNK         0.0000 
      3 H3         34.4414   34.9295   27.7986 H         1 UNK         0.0000 
      4 H4         34.5675   34.5731   29.4725 H         1 UNK         0.0000 
      5 C5         36.5121   34.5271   28.5318 C.3       1 UNK         0.0000 
      6 C6         37.0100   34.6782   27.0741 C.3       1 UNK         0.0000 
      7 H7         37.0216   35.6955   26.6646 H         1 UNK         0.0000 
      8 H8         38.0842   34.4707   26.9886 H         1 UNK         0.0000 
      9 H9         36.4118   33.9775   26.4787 H         1 UNK         0.0000 
     10 C10        36.7005   33.0785   28.9794 C.3       1 UNK         0.0000 
     11 H11        36.1334   32.4120   28.3191 H         1 UNK         0.0000 
     12 H12        37.7347   32.7306   29.0926 H         1 UNK         0.0000 
     13 H13        36.2795   32.8393   29.9637 H         1 UNK         0.0000 
     14 O14        37.4219   35.4138   29.1389 O.3       1 UNK         0.0000 
     15 C15        37.3454   35.6582   30.4491 C.2       1 UNK         0.0000 
     16 O16        36.9079   34.8465   31.2762 O.2       1 UNK         0.0000 
     17 N17        38.2644   36.6068   30.8496 N.am      1 UNK         0.0000 
     18 H18        38.7850   37.0903   30.1266 H         1 UNK         0.0000 
     19 C19        38.8817   36.6876   32.1976 C.3       1 UNK         0.0000 
     20 C20        37.8458   37.3150   33.2008 C.2       1 UNK         0.0000 
     21 N21        36.9320   36.4595   33.7276 N.am      1 UNK         0.0000 
     22 H22        36.8785   35.5262   33.3371 H         1 UNK         0.0000 
     23 O23        37.9198   38.5026   33.4464 O.2       1 UNK         0.0000 
     24 H24        38.9651   35.7135   32.6959 H         1 UNK         0.0000 
     25 C25        40.2668   37.2249   32.1829 C.3       1 UNK         0.0000 
     26 H26        40.2912   38.2906   31.9222 H         1 UNK         0.0000 
     27 H27        40.8589   36.8316   31.3473 H         1 UNK         0.0000 
     28 C28        40.9112   36.7671   33.3842 C.ar      1 UNK         0.0000 
     29 C29        40.7448   37.4383   34.5904 C.ar      1 UNK         0.0000 
     30 C30        41.2250   36.8794   35.8178 C.ar      1 UNK         0.0000 
     31 H31        40.8127   37.2637   36.7466 H         1 UNK         0.0000 
     32 H32        40.1594   38.3469   34.6907 H         1 UNK         0.0000 
     33 C33        41.7722   35.6320   33.4319 C.ar      1 UNK         0.0000 
     34 H34        41.9305   35.0068   32.5591 H         1 UNK         0.0000 
     35 C35        42.2304   35.0387   34.6305 C.ar      1 UNK         0.0000 
     36 H36        42.7731   34.0996   34.6891 H         1 UNK         0.0000 
     37 C37        41.9907   35.7254   35.8199 C.ar      1 UNK         0.0000 
     38 O38        42.2983   35.0302   36.9569 O.3       1 UNK         0.0000 
     39 C39        41.2233   34.8378   37.7710 C.ar      1 UNK         0.0000 
     40 C40        40.8441   35.7911   38.7485 C.ar      1 UNK         0.0000 
     41 C41        39.5620   35.6253   39.3148 C.ar      1 UNK         0.0000 
     42 H42        39.3034   36.2465   40.1675 H         1 UNK         0.0000 
     43 H43        41.4996   36.6131   39.0215 H         1 UNK         0.0000 
     44 C44        40.3724   33.7720   37.4402 C.ar      1 UNK         0.0000 
     45 H45        40.6915   33.0027   36.7434 H         1 UNK         0.0000 
     46 C46        39.0606   33.7019   37.8976 C.ar      1 UNK         0.0000 
     47 H47        38.4103   32.8797   37.6156 H         1 UNK         0.0000 
     48 C48        38.6422   34.6546   38.8317 C.ar      1 UNK         0.0000 
     49 C49        37.2166   34.7984   39.1943 C.2       1 UNK         0.0000 
     50 O50        36.9383   35.0837   40.3559 O.2       1 UNK         0.0000 
     51 C51        36.1486   34.5001   38.1692 C.3       1 UNK         0.0000 
     52 H52        36.3421   33.5155   37.7269 H         1 UNK         0.0000 
     53 H53        35.2389   34.3490   38.7637 H         1 UNK         0.0000 
     54 N54        36.0566   35.6521   37.1918 N.am      1 UNK         0.0000 
     55 H55        36.2886   36.5686   37.5548 H         1 UNK         0.0000 
     56 C56        35.9225   35.4847   35.7903 C.2       1 UNK         0.0000 
     57 O57        35.7087   34.3385   35.3871 O.2       1 UNK         0.0000 
     58 C58        35.9466   36.7503   34.8216 C.3       1 UNK         0.0000 
     59 H59        36.3050   37.5597   35.4693 H         1 UNK         0.0000 
     60 C60        34.6147   36.9602   34.1515 C.3       1 UNK         0.0000 
     61 H61        34.3434   35.9920   33.7135 H         1 UNK         0.0000 
     62 H62        34.6474   37.7540   33.3950 H         1 UNK         0.0000 
     63 C63        33.6246   37.4730   35.1368 C.ar      1 UNK         0.0000 
     64 C64        32.4000   36.8057   35.4443 C.ar      1 UNK         0.0000 
     65 H65        32.2439   35.8050   35.0525 H         1 UNK         0.0000 
     66 C66        31.4274   37.4059   36.3058 C.ar      1 UNK         0.0000 
     67 H67        30.4603   37.0130   36.6077 H         1 UNK         0.0000 
     68 C68        31.7953   38.6035   36.8616 C.ar      1 UNK         0.0000 
     69 H69        31.1348   39.1457   37.5314 H         1 UNK         0.0000 
     70 C70        33.0348   39.1880   36.5303 C.ar      1 UNK         0.0000 
     71 H71        33.2463   40.1618   36.9709 H         1 UNK         0.0000 
     72 N72        33.8832   38.6691   35.6476 N.ar      1 UNK         0.0000 
@<TRIPOS>BOND
     1    1    2 1    
     2    1    4 1    
     3    1    3 1    
     4    1    5 1    
     5    5   10 1    
     6    5   14 1    
     7    5    6 1    
     8    6    7 1    
     9    6    8 1    
    10    6    9 1    
    11   10   12 1    
    12   10   13 1    
    13   10   11 1    
    14   14   15 1    
    15   15   16 2    
    16   15   17 am   BACKBONE|DICT|INTERRES
    17   17   19 1    
    18   17   18 1    
    19   19   24 1    
    20   19   25 1    
    21   19   20 1    
    22   20   21 am   BACKBONE|DICT|INTERRES
    23   20   23 2    
    24   21   58 1    
    25   21   22 1    
    26   25   26 1    
    27   25   28 1    
    28   25   27 1    
    29   28   29 ar   
    30   28   33 ar   
    31   29   32 1    
    32   29   30 ar   
    33   30   31 1    
    34   30   37 ar   
    35   33   35 ar   
    36   33   34 1    
    37   35   37 ar   
    38   35   36 1    
    39   37   38 1    
    40   38   39 1    
    41   39   40 ar   
    42   39   44 ar   
    43   40   41 ar   
    44   40   43 1    
    45   41   42 1    
    46   41   48 ar   
    47   44   46 ar   
    48   44   45 1    
    49   46   48 ar   
    50   46   47 1    
    51   48   49 1    
    52   49   50 2    
    53   49   51 1    
    54   51   53 1    
    55   51   52 1    
    56   51   54 1    
    57   54   55 1    
    58   54   56 am   BACKBONE|DICT|INTERRES
    59   56   57 2    
    60   56   58 1    
    61   58   59 1    
    62   58   60 1    
    63   60   63 1    
    64   60   61 1    
    65   60   62 1    
    66   63   72 ar   
    67   63   64 ar   
    68   64   66 ar   
    69   64   65 1    
    70   66   67 1    
    71   66   68 ar   
    72   68   70 ar   
    73   68   69 1    
    74   70   71 1    
    75   70   72 ar   
@<TRIPOS>SUBSTRUCTURE
     1 UNK         1 GROUP             0       ****    0 ROOT    
@<TRIPOS>MOLECULE
Cpd5-1500
72   75    1
SMALL
USER_CHARGES


@<TRIPOS>ATOM
      1 C1         34.9622   39.1186   28.9924 C.3       1 UNK         0.0000 
      2 H2         34.3018   39.8150   28.4621 H         1 UNK         0.0000 
      3 H3         34.4020   38.5528   29.7462 H         1 UNK         0.0000 
      4 H4         35.5850   39.8685   29.4947 H         1 UNK         0.0000 
      5 C5         35.8803   38.2636   28.1057 C.3       1 UNK         0.0000 
      6 C6         36.2642   38.9762   26.8218 C.3       1 UNK         0.0000 
      7 H7         36.7568   38.2525   26.1603 H         1 UNK         0.0000 
      8 H8         35.3556   39.3884   26.3652 H         1 UNK         0.0000 
      9 H9         36.8918   39.8681   26.9417 H         1 UNK         0.0000 
     10 C10        35.0913   36.9773   27.6727 C.3       1 UNK         0.0000 
     11 H11        34.0759   37.0241   28.0859 H         1 UNK         0.0000 
     12 H12        34.9143   36.8979   26.5932 H         1 UNK         0.0000 
     13 H13        35.7312   36.1363   27.9668 H         1 UNK         0.0000 
     14 O14        37.0729   38.0132   28.7732 O.3       1 UNK         0.0000 
     15 C15        37.1048   37.4243   30.0103 C.2       1 UNK         0.0000 
     16 O16        36.1568   36.9176   30.5944 O.2       1 UNK         0.0000 
     17 N17        38.3188   37.5671   30.5565 N.am      1 UNK         0.0000 
     18 H18        38.9535   38.2383   30.1403 H         1 UNK         0.0000 
     19 C19        38.7944   37.0038   31.8912 C.3       1 UNK         0.0000 
     20 C20        37.8853   37.4307   33.1156 C.2       1 UNK         0.0000 
     21 N21        37.2543   36.3856   33.6927 N.am      1 UNK         0.0000 
     22 H22        37.5263   35.4675   33.3619 H         1 UNK         0.0000 
     23 O23        37.7302   38.6214   33.4393 O.2       1 UNK         0.0000 
     24 H24        38.6055   35.9244   31.9414 H         1 UNK         0.0000 
     25 C25        40.3085   37.2513   32.0262 C.3       1 UNK         0.0000 
     26 H26        40.4855   38.3254   31.8927 H         1 UNK         0.0000 
     27 H27        40.8794   36.7689   31.2228 H         1 UNK         0.0000 
     28 C28        40.8574   36.7284   33.3484 C.ar      1 UNK         0.0000 
     29 C29        40.8506   37.5406   34.4973 C.ar      1 UNK         0.0000 
     30 C30        41.1803   36.9473   35.7185 C.ar      1 UNK         0.0000 
     31 H31        41.1450   37.5574   36.6157 H         1 UNK         0.0000 
     32 H32        40.5019   38.5668   34.4232 H         1 UNK         0.0000 
     33 C33        41.4360   35.4221   33.3854 C.ar      1 UNK         0.0000 
     34 H34        41.4874   34.7937   32.5016 H         1 UNK         0.0000 
     35 C35        41.8500   34.8894   34.6199 C.ar      1 UNK         0.0000 
     36 H36        42.3509   33.9274   34.6680 H         1 UNK         0.0000 
     37 C37        41.6743   35.6707   35.7270 C.ar      1 UNK         0.0000 
     38 O38        42.1082   35.1856   36.9608 O.3       1 UNK         0.0000 
     39 C39        41.1532   34.8076   37.8138 C.ar      1 UNK         0.0000 
     40 C40        40.7652   35.6004   38.8906 C.ar      1 UNK         0.0000 
     41 C41        39.4632   35.5568   39.4537 C.ar      1 UNK         0.0000 
     42 H42        39.1658   36.3004   40.1871 H         1 UNK         0.0000 
     43 H43        41.3982   36.4461   39.1409 H         1 UNK         0.0000 
     44 C44        40.2488   33.8442   37.3581 C.ar      1 UNK         0.0000 
     45 H45        40.4742   33.1762   36.5328 H         1 UNK         0.0000 
     46 C46        38.9537   33.7198   37.9091 C.ar      1 UNK         0.0000 
     47 H47        38.2552   33.1681   37.2884 H         1 UNK         0.0000 
     48 C48        38.5191   34.6676   38.9302 C.ar      1 UNK         0.0000 
     49 C49        37.0873   34.8393   39.3098 C.2       1 UNK         0.0000 
     50 O50        36.8684   34.8638   40.4933 O.2       1 UNK         0.0000 
     51 C51        35.9982   34.6592   38.2566 C.3       1 UNK         0.0000 
     52 H52        35.9927   33.6235   37.8956 H         1 UNK         0.0000 
     53 H53        35.0512   34.6399   38.8100 H         1 UNK         0.0000 
     54 N54        36.0299   35.7059   37.1444 N.am      1 UNK         0.0000 
     55 H55        35.6434   36.6245   37.3266 H         1 UNK         0.0000 
     56 C56        36.4535   35.4264   35.8745 C.2       1 UNK         0.0000 
     57 O57        36.8539   34.3128   35.6162 O.2       1 UNK         0.0000 
     58 C58        36.3371   36.6102   34.8283 C.3       1 UNK         0.0000 
     59 H59        36.7177   37.4207   35.4616 H         1 UNK         0.0000 
     60 C60        34.9008   36.9363   34.2872 C.3       1 UNK         0.0000 
     61 H61        34.5979   36.1987   33.5337 H         1 UNK         0.0000 
     62 H62        34.9987   37.8377   33.6705 H         1 UNK         0.0000 
     63 C63        33.9130   37.1965   35.3718 C.ar      1 UNK         0.0000 
     64 C64        32.8051   36.4186   35.6418 C.ar      1 UNK         0.0000 
     65 H65        32.4186   35.7067   34.9183 H         1 UNK         0.0000 
     66 C66        32.1941   36.5202   36.8582 C.ar      1 UNK         0.0000 
     67 H67        31.4042   35.8307   37.1414 H         1 UNK         0.0000 
     68 C68        32.6398   37.5077   37.7431 C.ar      1 UNK         0.0000 
     69 H69        32.1715   37.6826   38.7082 H         1 UNK         0.0000 
     70 C70        33.7626   38.3072   37.3979 C.ar      1 UNK         0.0000 
     71 H71        34.1702   39.1414   37.9673 H         1 UNK         0.0000 
     72 N72        34.3822   38.1169   36.2400 N.ar      1 UNK         0.0000 
@<TRIPOS>BOND
     1    1    4 1    
     2    1    3 1    
     3    1    2 1    
     4    1    5 1    
     5    5   14 1    
     6    5    6 1    
     7    5   10 1    
     8    6    9 1    
     9    6    7 1    
    10    6    8 1    
    11   10   11 1    
    12   10   13 1    
    13   10   12 1    
    14   14   15 1    
    15   15   16 2    
    16   15   17 am   BACKBONE|DICT|INTERRES
    17   17   19 1    
    18   17   18 1    
    19   19   24 1    
    20   19   25 1    
    21   19   20 1    
    22   20   23 2    
    23   20   21 am   BACKBONE|DICT|INTERRES
    24   21   58 1    
    25   21   22 1    
    26   25   28 1    
    27   25   26 1    
    28   25   27 1    
    29   28   33 ar   
    30   28   29 ar   
    31   29   30 ar   
    32   29   32 1    
    33   30   37 ar   
    34   30   31 1    
    35   33   35 ar   
    36   33   34 1    
    37   35   36 1    
    38   35   37 ar   
    39   37   38 1    
    40   38   39 1    
    41   39   40 ar   
    42   39   44 ar   
    43   40   43 1    
    44   40   41 ar   
    45   41   42 1    
    46   41   48 ar   
    47   44   46 ar   
    48   44   45 1    
    49   46   48 ar   
    50   46   47 1    
    51   48   49 1    
    52   49   50 2    
    53   49   51 1    
    54   51   53 1    
    55   51   52 1    
    56   51   54 1    
    57   54   55 1    
    58   54   56 am   BACKBONE|DICT|INTERRES
    59   56   57 2    
    60   56   58 1    
    61   58   59 1    
    62   58   60 1    
    63   60   63 1    
    64   60   61 1    
    65   60   62 1    
    66   63   64 ar   
    67   63   72 ar   
    68   64   66 ar   
    69   64   65 1    
    70   66   67 1    
    71   66   68 ar   
    72   68   69 1    
    73   68   70 ar   
    74   70   71 1    
    75   70   72 ar   
@<TRIPOS>SUBSTRUCTURE
     1 UNK         1 GROUP             0       ****    0 ROOT    
@<TRIPOS>MOLECULE
Cpd5-2000
72   75    1
SMALL
USER_CHARGES


@<TRIPOS>ATOM
      1 C1         34.1524   37.9179   30.1710 C.3       1 UNK         0.0000 
      2 H2         34.3068   38.8332   30.7542 H         1 UNK         0.0000 
      3 H3         33.1456   37.9822   29.7398 H         1 UNK         0.0000 
      4 H4         34.1489   37.0212   30.8032 H         1 UNK         0.0000 
      5 C5         35.1330   37.6349   29.0755 C.3       1 UNK         0.0000 
      6 C6         35.0758   38.7756   28.0944 C.3       1 UNK         0.0000 
      7 H7         36.0509   38.7513   27.5924 H         1 UNK         0.0000 
      8 H8         34.2902   38.5955   27.3489 H         1 UNK         0.0000 
      9 H9         35.0034   39.8009   28.4779 H         1 UNK         0.0000 
     10 C10        34.9268   36.3028   28.3309 C.3       1 UNK         0.0000 
     11 H11        35.0923   35.3707   28.8835 H         1 UNK         0.0000 
     12 H12        33.8625   36.2736   28.0648 H         1 UNK         0.0000 
     13 H13        35.5228   36.3538   27.4115 H         1 UNK         0.0000 
     14 O14        36.4658   37.6133   29.6357 O.3       1 UNK         0.0000 
     15 C15        36.8724   36.8030   30.6230 C.2       1 UNK         0.0000 
     16 O16        36.2569   35.8396   31.0667 O.2       1 UNK         0.0000 
     17 N17        38.1055   37.3188   31.0274 N.am      1 UNK         0.0000 
     18 H18        38.4430   38.0029   30.3614 H         1 UNK         0.0000 
     19 C19        38.8203   36.8850   32.1984 C.3       1 UNK         0.0000 
     20 C20        38.0146   37.2096   33.5204 C.2       1 UNK         0.0000 
     21 N21        37.1335   36.1805   33.8729 N.am      1 UNK         0.0000 
     22 H22        37.0107   35.4360   33.1975 H         1 UNK         0.0000 
     23 O23        38.2060   38.1263   34.2664 O.2       1 UNK         0.0000 
     24 H24        38.8419   35.7941   32.0857 H         1 UNK         0.0000 
     25 C25        40.2834   37.3699   32.1939 C.3       1 UNK         0.0000 
     26 H26        40.2471   38.4641   32.2690 H         1 UNK         0.0000 
     27 H27        40.8266   37.0845   31.2846 H         1 UNK         0.0000 
     28 C28        41.0570   36.8345   33.3750 C.ar      1 UNK         0.0000 
     29 C29        41.2793   37.6350   34.4960 C.ar      1 UNK         0.0000 
     30 C30        41.6371   37.0174   35.6638 C.ar      1 UNK         0.0000 
     31 H31        41.6121   37.6546   36.5431 H         1 UNK         0.0000 
     32 H32        40.9602   38.6669   34.6122 H         1 UNK         0.0000 
     33 C33        41.4414   35.5517   33.3922 C.ar      1 UNK         0.0000 
     34 H34        41.1852   34.9450   32.5286 H         1 UNK         0.0000 
     35 C35        41.9986   34.9324   34.5424 C.ar      1 UNK         0.0000 
     36 H36        42.1492   33.8583   34.5816 H         1 UNK         0.0000 
     37 C37        42.0580   35.6921   35.7272 C.ar      1 UNK         0.0000 
     38 O38        42.2204   35.1169   36.9080 O.3       1 UNK         0.0000 
     39 C39        41.1056   34.9894   37.6455 C.ar      1 UNK         0.0000 
     40 C40        40.8178   35.7379   38.7861 C.ar      1 UNK         0.0000 
     41 C41        39.5495   35.6234   39.3520 C.ar      1 UNK         0.0000 
     42 H42        39.2874   36.1454   40.2684 H         1 UNK         0.0000 
     43 H43        41.5764   36.3465   39.2693 H         1 UNK         0.0000 
     44 C44        40.1481   34.1362   37.0662 C.ar      1 UNK         0.0000 
     45 H45        40.3907   33.4758   36.2387 H         1 UNK         0.0000 
     46 C46        38.9283   33.9951   37.6333 C.ar      1 UNK         0.0000 
     47 H47        38.3024   33.2454   37.1598 H         1 UNK         0.0000 
     48 C48        38.5323   34.8412   38.7170 C.ar      1 UNK         0.0000 
     49 C49        37.1448   34.9326   39.2235 C.2       1 UNK         0.0000 
     50 O50        36.8731   35.4449   40.2578 O.2       1 UNK         0.0000 
     51 C51        36.0772   34.4397   38.2823 C.3       1 UNK         0.0000 
     52 H52        36.3995   33.4842   37.8494 H         1 UNK         0.0000 
     53 H53        35.1357   34.2939   38.8256 H         1 UNK         0.0000 
     54 N54        35.9645   35.4228   37.1464 N.am      1 UNK         0.0000 
     55 H55        36.0109   36.3900   37.4439 H         1 UNK         0.0000 
     56 C56        35.7850   35.1568   35.8179 C.2       1 UNK         0.0000 
     57 O57        35.5868   34.0558   35.3071 O.2       1 UNK         0.0000 
     58 C58        35.9980   36.3639   34.9092 C.3       1 UNK         0.0000 
     59 H59        36.1867   37.2381   35.5448 H         1 UNK         0.0000 
     60 C60        34.8128   36.8164   34.0073 C.3       1 UNK         0.0000 
     61 H61        34.6784   36.0080   33.2772 H         1 UNK         0.0000 
     62 H62        35.1784   37.7017   33.4721 H         1 UNK         0.0000 
     63 C63        33.5359   37.0277   34.7726 C.ar      1 UNK         0.0000 
     64 C64        32.5770   35.9811   34.9554 C.ar      1 UNK         0.0000 
     65 H65        32.9243   34.9867   34.6921 H         1 UNK         0.0000 
     66 C66        31.3842   36.3075   35.6469 C.ar      1 UNK         0.0000 
     67 H67        30.7276   35.4916   35.9354 H         1 UNK         0.0000 
     68 C68        31.2088   37.6752   35.9988 C.ar      1 UNK         0.0000 
     69 H69        30.1811   37.9154   36.2575 H         1 UNK         0.0000 
     70 C70        32.0700   38.6636   35.6066 C.ar      1 UNK         0.0000 
     71 H71        31.6928   39.6847   35.6432 H         1 UNK         0.0000 
     72 N72        33.2663   38.3158   35.0128 N.ar      1 UNK         0.0000 
@<TRIPOS>BOND
     1    1    4 1    
     2    1    2 1    
     3    1    3 1    
     4    1    5 1    
     5    5   14 1    
     6    5    6 1    
     7    5   10 1    
     8    6    9 1    
     9    6    7 1    
    10    6    8 1    
    11   10   11 1    
    12   10   12 1    
    13   10   13 1    
    14   14   15 1    
    15   15   16 2    
    16   15   17 am   BACKBONE|DICT|INTERRES
    17   17   19 1    
    18   17   18 1    
    19   19   24 1    
    20   19   25 1    
    21   19   20 1    
    22   20   21 am   BACKBONE|DICT|INTERRES
    23   20   23 2    
    24   21   58 1    
    25   21   22 1    
    26   25   26 1    
    27   25   28 1    
    28   25   27 1    
    29   28   29 ar   
    30   28   33 ar   
    31   29   32 1    
    32   29   30 ar   
    33   30   37 ar   
    34   30   31 1    
    35   33   35 ar   
    36   33   34 1    
    37   35   36 1    
    38   35   37 ar   
    39   37   38 1    
    40   38   39 1    
    41   39   40 ar   
    42   39   44 ar   
    43   40   41 ar   
    44   40   43 1    
    45   41   42 1    
    46   41   48 ar   
    47   44   46 ar   
    48   44   45 1    
    49   46   48 ar   
    50   46   47 1    
    51   48   49 1    
    52   49   50 2    
    53   49   51 1    
    54   51   53 1    
    55   51   52 1    
    56   51   54 1    
    57   54   55 1    
    58   54   56 am   BACKBONE|DICT|INTERRES
    59   56   57 2    
    60   56   58 1    
    61   58   59 1    
    62   58   60 1    
    63   60   63 1    
    64   60   61 1    
    65   60   62 1    
    66   63   64 ar   
    67   63   72 ar   
    68   64   66 ar   
    69   64   65 1    
    70   66   67 1    
    71   66   68 ar   
    72   68   69 1    
    73   68   70 ar   
    74   70   71 1    
    75   70   72 ar   
@<TRIPOS>SUBSTRUCTURE
     1 UNK         1 GROUP             0       ****    0 ROOT    
@<TRIPOS>MOLECULE
Cpd5-2500
72   75    1
SMALL
USER_CHARGES


@<TRIPOS>ATOM
      1 C1         35.6373   36.0410   28.1745 C.3       1 UNK         0.0000 
      2 H2         35.2074   36.4601   29.0928 H         1 UNK         0.0000 
      3 H3         34.8277   35.8769   27.4519 H         1 UNK         0.0000 
      4 H4         36.0825   35.0956   28.5072 H         1 UNK         0.0000 
      5 C5         36.7361   37.0037   27.5633 C.3       1 UNK         0.0000 
      6 C6         36.0390   38.2173   26.8549 C.3       1 UNK         0.0000 
      7 H7         35.5937   38.1211   25.8575 H         1 UNK         0.0000 
      8 H8         35.3893   38.7428   27.5662 H         1 UNK         0.0000 
      9 H9         36.7993   38.9192   26.4895 H         1 UNK         0.0000 
     10 C10        37.5882   36.3050   26.5043 C.3       1 UNK         0.0000 
     11 H11        37.9108   35.3121   26.8405 H         1 UNK         0.0000 
     12 H12        37.0747   36.3511   25.5362 H         1 UNK         0.0000 
     13 H13        38.4690   36.9363   26.3344 H         1 UNK         0.0000 
     14 O14        37.4727   37.6082   28.5919 O.3       1 UNK         0.0000 
     15 C15        38.1662   36.8394   29.4574 C.2       1 UNK         0.0000 
     16 O16        38.6813   35.7321   29.2064 O.2       1 UNK         0.0000 
     17 N17        38.2457   37.4944   30.6322 N.am      1 UNK         0.0000 
     18 H18        37.7447   38.3723   30.5789 H         1 UNK         0.0000 
     19 C19        38.7565   36.8802   31.9073 C.3       1 UNK         0.0000 
     20 C20        38.0475   37.4594   33.1371 C.2       1 UNK         0.0000 
     21 N21        37.5356   36.4618   33.9331 N.am      1 UNK         0.0000 
     22 H22        37.7859   35.5061   33.7133 H         1 UNK         0.0000 
     23 O23        37.8547   38.6540   33.3441 O.2       1 UNK         0.0000 
     24 H24        38.5688   35.7997   31.8848 H         1 UNK         0.0000 
     25 C25        40.2941   37.1809   31.9461 C.3       1 UNK         0.0000 
     26 H26        40.4845   38.2532   31.8207 H         1 UNK         0.0000 
     27 H27        40.6772   36.5872   31.1070 H         1 UNK         0.0000 
     28 C28        40.9218   36.7127   33.2882 C.ar      1 UNK         0.0000 
     29 C29        40.9865   37.5890   34.3403 C.ar      1 UNK         0.0000 
     30 C30        41.4558   37.1435   35.6096 C.ar      1 UNK         0.0000 
     31 H31        41.6026   37.8822   36.3915 H         1 UNK         0.0000 
     32 H32        40.6371   38.6057   34.1845 H         1 UNK         0.0000 
     33 C33        41.0878   35.3461   33.4929 C.ar      1 UNK         0.0000 
     34 H34        40.8907   34.6734   32.6627 H         1 UNK         0.0000 
     35 C35        41.6079   34.9278   34.7254 C.ar      1 UNK         0.0000 
     36 H36        41.8818   33.8912   34.8988 H         1 UNK         0.0000 
     37 C37        41.7906   35.7934   35.7951 C.ar      1 UNK         0.0000 
     38 O38        42.0690   35.2091   36.9785 O.3       1 UNK         0.0000 
     39 C39        40.9932   34.9653   37.7115 C.ar      1 UNK         0.0000 
     40 C40        40.6290   35.8381   38.7042 C.ar      1 UNK         0.0000 
     41 C41        39.3616   35.6401   39.3248 C.ar      1 UNK         0.0000 
     42 H42        38.9012   36.4655   39.8584 H         1 UNK         0.0000 
     43 H43        41.2980   36.6474   38.9836 H         1 UNK         0.0000 
     44 C44        40.1769   33.8416   37.3665 C.ar      1 UNK         0.0000 
     45 H45        40.4720   33.1455   36.5870 H         1 UNK         0.0000 
     46 C46        38.9357   33.6635   37.9594 C.ar      1 UNK         0.0000 
     47 H47        38.3232   32.8282   37.6328 H         1 UNK         0.0000 
     48 C48        38.5056   34.5838   38.9161 C.ar      1 UNK         0.0000 
     49 C49        37.0773   34.6205   39.3779 C.2       1 UNK         0.0000 
     50 O50        36.8027   34.6965   40.5367 O.2       1 UNK         0.0000 
     51 C51        36.0334   34.5544   38.2790 C.3       1 UNK         0.0000 
     52 H52        36.0381   33.5375   37.8681 H         1 UNK         0.0000 
     53 H53        34.9985   34.6983   38.6152 H         1 UNK         0.0000 
     54 N54        36.2447   35.5781   37.2676 N.am      1 UNK         0.0000 
     55 H55        35.9554   36.5094   37.5398 H         1 UNK         0.0000 
     56 C56        36.4523   35.3884   35.9050 C.2       1 UNK         0.0000 
     57 O57        36.4504   34.2455   35.4350 O.2       1 UNK         0.0000 
     58 C58        36.5903   36.7173   35.0196 C.3       1 UNK         0.0000 
     59 H59        36.9696   37.6042   35.5423 H         1 UNK         0.0000 
     60 C60        35.2169   37.2280   34.5044 C.3       1 UNK         0.0000 
     61 H61        34.9919   36.5868   33.6425 H         1 UNK         0.0000 
     62 H62        35.2311   38.2735   34.1727 H         1 UNK         0.0000 
     63 C63        34.3257   37.0968   35.6851 C.ar      1 UNK         0.0000 
     64 C64        33.3425   36.1496   35.6686 C.ar      1 UNK         0.0000 
     65 H65        33.1837   35.5080   34.8058 H         1 UNK         0.0000 
     66 C66        32.2590   36.2792   36.5789 C.ar      1 UNK         0.0000 
     67 H67        31.3816   35.6507   36.4557 H         1 UNK         0.0000 
     68 C68        32.5254   37.0652   37.6944 C.ar      1 UNK         0.0000 
     69 H69        31.7500   37.2656   38.4283 H         1 UNK         0.0000 
     70 C70        33.6743   37.8216   37.7214 C.ar      1 UNK         0.0000 
     71 H71        33.8984   38.4903   38.5520 H         1 UNK         0.0000 
     72 N72        34.5148   37.9203   36.6979 N.ar      1 UNK         0.0000 
@<TRIPOS>BOND
     1    1    4 1    
     2    1    2 1    
     3    1    3 1    
     4    1    5 1    
     5    5   14 1    
     6    5    6 1    
     7    5   10 1    
     8    6    8 1    
     9    6    7 1    
    10    6    9 1    
    11   10   11 1    
    12   10   12 1    
    13   10   13 1    
    14   14   15 1    
    15   15   17 am   BACKBONE|DICT|INTERRES
    16   15   16 2    
    17   17   19 1    
    18   17   18 1    
    19   19   24 1    
    20   19   25 1    
    21   19   20 1    
    22   20   23 2    
    23   20   21 am   BACKBONE|DICT|INTERRES
    24   21   58 1    
    25   21   22 1    
    26   25   28 1    
    27   25   26 1    
    28   25   27 1    
    29   28   33 ar   
    30   28   29 ar   
    31   29   30 ar   
    32   29   32 1    
    33   30   37 ar   
    34   30   31 1    
    35   33   35 ar   
    36   33   34 1    
    37   35   36 1    
    38   35   37 ar   
    39   37   38 1    
    40   38   39 1    
    41   39   40 ar   
    42   39   44 ar   
    43   40   43 1    
    44   40   41 ar   
    45   41   42 1    
    46   41   48 ar   
    47   44   46 ar   
    48   44   45 1    
    49   46   48 ar   
    50   46   47 1    
    51   48   49 1    
    52   49   50 2    
    53   49   51 1    
    54   51   53 1    
    55   51   52 1    
    56   51   54 1    
    57   54   55 1    
    58   54   56 am   BACKBONE|DICT|INTERRES
    59   56   57 2    
    60   56   58 1    
    61   58   59 1    
    62   58   60 1    
    63   60   63 1    
    64   60   61 1    
    65   60   62 1    
    66   63   72 ar   
    67   63   64 ar   
    68   64   66 ar   
    69   64   65 1    
    70   66   68 ar   
    71   66   67 1    
    72   68   70 ar   
    73   68   69 1    
    74   70   71 1    
    75   70   72 ar   
@<TRIPOS>SUBSTRUCTURE
     1 UNK         1 GROUP             0       ****    0 ROOT    
@<TRIPOS>MOLECULE
Cpd5-3000
72   75    1
SMALL
USER_CHARGES


@<TRIPOS>ATOM
      1 C1         36.3106   34.8454   27.4758 C.3       1 UNK         0.0000 
      2 H2         35.4165   35.2661   27.9521 H         1 UNK         0.0000 
      3 H3         36.0296   34.4824   26.4797 H         1 UNK         0.0000 
      4 H4         36.6147   33.9512   28.0334 H         1 UNK         0.0000 
      5 C5         37.3398   35.9707   27.4423 C.3       1 UNK         0.0000 
      6 C6         36.8543   37.1560   26.6153 C.3       1 UNK         0.0000 
      7 H7         36.8091   36.8692   25.5570 H         1 UNK         0.0000 
      8 H8         35.8297   37.2970   26.9813 H         1 UNK         0.0000 
      9 H9         37.3434   38.1248   26.7742 H         1 UNK         0.0000 
     10 C10        38.6198   35.4624   26.7557 C.3       1 UNK         0.0000 
     11 H11        38.4556   35.2507   25.6919 H         1 UNK         0.0000 
     12 H12        39.2894   36.3290   26.8068 H         1 UNK         0.0000 
     13 H13        39.1058   34.5996   27.2289 H         1 UNK         0.0000 
     14 O14        37.4459   36.4969   28.7447 O.3       1 UNK         0.0000 
     15 C15        38.0397   35.7381   29.7353 C.2       1 UNK         0.0000 
     16 O16        38.6938   34.7204   29.7120 O.2       1 UNK         0.0000 
     17 N17        38.0307   36.6108   30.7773 N.am      1 UNK         0.0000 
     18 H18        37.5477   37.4947   30.6694 H         1 UNK         0.0000 
     19 C19        38.7132   36.5854   32.0823 C.3       1 UNK         0.0000 
     20 C20        37.8220   37.2683   33.1152 C.2       1 UNK         0.0000 
     21 N21        36.9619   36.4521   33.7913 N.am      1 UNK         0.0000 
     22 H22        37.0775   35.4921   33.4903 H         1 UNK         0.0000 
     23 O23        37.9068   38.4551   33.3807 O.2       1 UNK         0.0000 
     24 H24        38.7108   35.5397   32.4135 H         1 UNK         0.0000 
     25 C25        40.1488   37.1515   32.0780 C.3       1 UNK         0.0000 
     26 H26        40.1578   38.2372   31.9204 H         1 UNK         0.0000 
     27 H27        40.6981   36.7750   31.2063 H         1 UNK         0.0000 
     28 C28        40.9297   36.7075   33.3529 C.ar      1 UNK         0.0000 
     29 C29        41.1320   37.5906   34.3862 C.ar      1 UNK         0.0000 
     30 C30        41.6185   37.1665   35.6501 C.ar      1 UNK         0.0000 
     31 H31        41.4820   37.8314   36.4974 H         1 UNK         0.0000 
     32 H32        40.8892   38.6459   34.3010 H         1 UNK         0.0000 
     33 C33        41.3293   35.3387   33.4705 C.ar      1 UNK         0.0000 
     34 H34        41.0935   34.6487   32.6657 H         1 UNK         0.0000 
     35 C35        41.9060   34.9281   34.7179 C.ar      1 UNK         0.0000 
     36 H36        42.1075   33.8638   34.8039 H         1 UNK         0.0000 
     37 C37        41.9759   35.8304   35.7956 C.ar      1 UNK         0.0000 
     38 O38        42.1738   35.3464   37.0133 O.3       1 UNK         0.0000 
     39 C39        41.1209   34.9272   37.7371 C.ar      1 UNK         0.0000 
     40 C40        40.7906   35.5628   38.9360 C.ar      1 UNK         0.0000 
     41 C41        39.4806   35.4994   39.4719 C.ar      1 UNK         0.0000 
     42 H42        39.1509   36.0244   40.3625 H         1 UNK         0.0000 
     43 H43        41.5452   36.1717   39.4245 H         1 UNK         0.0000 
     44 C44        40.2048   33.9941   37.2114 C.ar      1 UNK         0.0000 
     45 H45        40.5618   33.4472   36.3445 H         1 UNK         0.0000 
     46 C46        38.8553   33.8644   37.7002 C.ar      1 UNK         0.0000 
     47 H47        38.1471   33.2750   37.1256 H         1 UNK         0.0000 
     48 C48        38.4770   34.7158   38.8051 C.ar      1 UNK         0.0000 
     49 C49        37.0913   34.6420   39.3144 C.2       1 UNK         0.0000 
     50 O50        36.7338   34.6517   40.4561 O.2       1 UNK         0.0000 
     51 C51        35.9645   34.5371   38.1739 C.3       1 UNK         0.0000 
     52 H52        35.9734   33.5714   37.6545 H         1 UNK         0.0000 
     53 H53        34.9706   34.6918   38.6108 H         1 UNK         0.0000 
     54 N54        36.1292   35.6559   37.2526 N.am      1 UNK         0.0000 
     55 H55        36.1570   36.5734   37.6809 H         1 UNK         0.0000 
     56 C56        36.3701   35.5392   35.8878 C.2       1 UNK         0.0000 
     57 O57        36.4003   34.4125   35.4210 O.2       1 UNK         0.0000 
     58 C58        36.4248   36.8682   35.0994 C.3       1 UNK         0.0000 
     59 H59        37.0585   37.5026   35.7313 H         1 UNK         0.0000 
     60 C60        35.0687   37.4807   34.9206 C.3       1 UNK         0.0000 
     61 H61        34.3105   36.6906   34.9775 H         1 UNK         0.0000 
     62 H62        35.0340   37.8906   33.9032 H         1 UNK         0.0000 
     63 C63        34.6095   38.6169   35.8716 C.ar      1 UNK         0.0000 
     64 C64        33.4427   39.2696   35.6271 C.ar      1 UNK         0.0000 
     65 H65        32.8419   38.9625   34.7765 H         1 UNK         0.0000 
     66 C66        33.1290   40.4003   36.4127 C.ar      1 UNK         0.0000 
     67 H67        32.1965   40.9212   36.2173 H         1 UNK         0.0000 
     68 C68        33.9026   40.5805   37.5888 C.ar      1 UNK         0.0000 
     69 H69        33.6114   41.2536   38.3903 H         1 UNK         0.0000 
     70 C70        35.0134   39.8079   37.7878 C.ar      1 UNK         0.0000 
     71 H71        35.6701   40.0337   38.6270 H         1 UNK         0.0000 
     72 N72        35.3832   38.8908   36.9091 N.ar      1 UNK         0.0000 
@<TRIPOS>BOND
     1    1    5 1    
     2    1    2 1    
     3    1    4 1    
     4    1    3 1    
     5    5   14 1    
     6    5    6 1    
     7    5   10 1    
     8    6    8 1    
     9    6    9 1    
    10    6    7 1    
    11   10   12 1    
    12   10   13 1    
    13   10   11 1    
    14   14   15 1    
    15   15   17 am   BACKBONE|DICT|INTERRES
    16   15   16 2    
    17   17   19 1    
    18   17   18 1    
    19   19   24 1    
    20   19   25 1    
    21   19   20 1    
    22   20   21 am   BACKBONE|DICT|INTERRES
    23   20   23 2    
    24   21   58 1    
    25   21   22 1    
    26   25   26 1    
    27   25   28 1    
    28   25   27 1    
    29   28   29 ar   
    30   28   33 ar   
    31   29   32 1    
    32   29   30 ar   
    33   30   31 1    
    34   30   37 ar   
    35   33   35 ar   
    36   33   34 1    
    37   35   37 ar   
    38   35   36 1    
    39   37   38 1    
    40   38   39 1    
    41   39   40 ar   
    42   39   44 ar   
    43   40   41 ar   
    44   40   43 1    
    45   41   42 1    
    46   41   48 ar   
    47   44   46 ar   
    48   44   45 1    
    49   46   48 ar   
    50   46   47 1    
    51   48   49 1    
    52   49   50 2    
    53   49   51 1    
    54   51   53 1    
    55   51   52 1    
    56   51   54 1    
    57   54   55 1    
    58   54   56 am   BACKBONE|DICT|INTERRES
    59   56   57 2    
    60   56   58 1    
    61   58   59 1    
    62   58   60 1    
    63   60   63 1    
    64   60   61 1    
    65   60   62 1    
    66   63   72 ar   
    67   63   64 ar   
    68   64   66 ar   
    69   64   65 1    
    70   66   68 ar   
    71   66   67 1    
    72   68   70 ar   
    73   68   69 1    
    74   70   71 1    
    75   70   72 ar   
@<TRIPOS>SUBSTRUCTURE
     1 UNK         1 GROUP             0       ****    0 ROOT    
@<TRIPOS>MOLECULE
Cpd5-3500-MRC
72   75    1
SMALL
USER_CHARGES


@<TRIPOS>ATOM
      1 C1         37.4542   38.2694   26.3106 C.3       1 UNK         0.0000 
      2 H2         36.4409   38.4499   26.6901 H         1 UNK         0.0000 
      3 H3         38.0022   39.2109   26.4456 H         1 UNK         0.0000 
      4 H4         37.3971   38.1103   25.2264 H         1 UNK         0.0000 
      5 C5         38.0912   37.0710   27.0216 C.3       1 UNK         0.0000 
      6 C6         39.5623   36.9365   26.5144 C.3       1 UNK         0.0000 
      7 H7         40.1806   37.8149   26.7368 H         1 UNK         0.0000 
      8 H8         39.9490   36.0025   26.9387 H         1 UNK         0.0000 
      9 H9         39.5428   36.7581   25.4323 H         1 UNK         0.0000 
     10 C10        37.2999   35.8184   26.8401 C.3       1 UNK         0.0000 
     11 H11        37.1418   35.4616   25.8146 H         1 UNK         0.0000 
     12 H12        37.8274   34.9646   27.2825 H         1 UNK         0.0000 
     13 H13        36.3509   35.9785   27.3675 H         1 UNK         0.0000 
     14 O14        38.2005   37.4007   28.3285 O.3       1 UNK         0.0000 
     15 C15        38.6823   36.5550   29.3102 C.2       1 UNK         0.0000 
     16 O16        39.2836   35.4880   29.2640 O.2       1 UNK         0.0000 
     17 N17        38.3936   37.2632   30.4026 N.am      1 UNK         0.0000 
     18 H18        38.0730   38.1867   30.1372 H         1 UNK         0.0000 
     19 C19        38.7499   36.8253   31.7983 C.3       1 UNK         0.0000 
     20 C20        37.8098   37.3978   32.8738 C.2       1 UNK         0.0000 
     21 N21        37.3083   36.4586   33.7653 N.am      1 UNK         0.0000 
     22 H22        37.7212   35.5350   33.7148 H         1 UNK         0.0000 
     23 O23        37.6438   38.5924   33.0802 O.2       1 UNK         0.0000 
     24 H24        38.6769   35.7325   31.8434 H         1 UNK         0.0000 
     25 C25        40.2345   37.2185   32.0572 C.3       1 UNK         0.0000 
     26 H26        40.3553   38.3043   32.1494 H         1 UNK         0.0000 
     27 H27        40.8524   36.8808   31.2160 H         1 UNK         0.0000 
     28 C28        40.7348   36.7109   33.3706 C.ar      1 UNK         0.0000 
     29 C29        40.3480   37.2776   34.6098 C.ar      1 UNK         0.0000 
     30 C30        40.8559   36.7751   35.8851 C.ar      1 UNK         0.0000 
     31 H31        40.4091   37.0131   36.8459 H         1 UNK         0.0000 
     32 H32        39.5830   38.0466   34.6700 H         1 UNK         0.0000 
     33 C33        41.5883   35.5870   33.3808 C.ar      1 UNK         0.0000 
     34 H34        41.7906   35.1231   32.4197 H         1 UNK         0.0000 
     35 C35        42.1538   35.1301   34.5667 C.ar      1 UNK         0.0000 
     36 H36        42.8555   34.3029   34.5341 H         1 UNK         0.0000 
     37 C37        41.8114   35.7465   35.7981 C.ar      1 UNK         0.0000 
     38 O38        42.1997   35.1532   36.9709 O.3       1 UNK         0.0000 
     39 C39        41.1004   34.7632   37.7662 C.ar      1 UNK         0.0000 
     40 C40        40.8190   35.4546   38.9433 C.ar      1 UNK         0.0000 
     41 C41        39.5521   35.3689   39.5801 C.ar      1 UNK         0.0000 
     42 H42        39.4305   35.9213   40.5070 H         1 UNK         0.0000 
     43 H43        41.6658   35.9422   39.4172 H         1 UNK         0.0000 
     44 C44        40.1214   33.9019   37.2760 C.ar      1 UNK         0.0000 
     45 H45        40.2398   33.4801   36.2814 H         1 UNK         0.0000 
     46 C46        38.9049   33.8072   37.9154 C.ar      1 UNK         0.0000 
     47 H47        38.2615   33.0723   37.4430 H         1 UNK         0.0000 
     48 C48        38.5443   34.5844   39.0054 C.ar      1 UNK         0.0000 
     49 C49        37.0764   34.6987   39.4199 C.2       1 UNK         0.0000 
     50 O50        36.7106   34.8975   40.5667 O.2       1 UNK         0.0000 
     51 C51        36.0833   34.8023   38.1807 C.3       1 UNK         0.0000 
     52 H52        35.9660   33.8463   37.6565 H         1 UNK         0.0000 
     53 H53        35.1160   35.1512   38.5630 H         1 UNK         0.0000 
     54 N54        36.4214   35.8307   37.2066 N.am      1 UNK         0.0000 
     55 H55        36.3738   36.7857   37.5403 H         1 UNK         0.0000 
     56 C56        36.5663   35.5152   35.8809 C.2       1 UNK         0.0000 
     57 O57        36.7588   34.3888   35.4556 O.2       1 UNK         0.0000 
     58 C58        36.5638   36.8048   34.9473 C.3       1 UNK         0.0000 
     59 H59        36.9473   37.6864   35.4757 H         1 UNK         0.0000 
     60 C60        35.1131   37.1409   34.4809 C.3       1 UNK         0.0000 
     61 H61        34.8408   36.1942   33.9990 H         1 UNK         0.0000 
     62 H62        35.0934   37.9092   33.6979 H         1 UNK         0.0000 
     63 C63        34.1844   37.7497   35.4911 C.ar      1 UNK         0.0000 
     64 C64        32.8774   37.6425   35.2981 C.ar      1 UNK         0.0000 
     65 H65        32.4823   37.2803   34.3543 H         1 UNK         0.0000 
     66 C66        31.9998   38.0855   36.2979 C.ar      1 UNK         0.0000 
     67 H67        30.9164   38.0394   36.2428 H         1 UNK         0.0000 
     68 C68        32.5281   38.6309   37.4433 C.ar      1 UNK         0.0000 
     69 H69        31.8446   38.9398   38.2289 H         1 UNK         0.0000 
     70 C70        33.9184   38.7506   37.5569 C.ar      1 UNK         0.0000 
     71 H71        34.3395   39.2584   38.4232 H         1 UNK         0.0000 
     72 N72        34.7272   38.3376   36.5755 N.ar      1 UNK         0.0000 
@<TRIPOS>BOND
     1    1    3 1    
     2    1    2 1    
     3    1    5 1    
     4    1    4 1    
     5    5   14 1    
     6    5    6 1    
     7    5   10 1    
     8    6    7 1    
     9    6    8 1    
    10    6    9 1    
    11   10   12 1    
    12   10   13 1    
    13   10   11 1    
    14   14   15 1    
    15   15   17 am   BACKBONE|DICT|INTERRES
    16   15   16 2    
    17   17   19 1    
    18   17   18 1    
    19   19   24 1    
    20   19   25 1    
    21   19   20 1    
    22   20   23 2    
    23   20   21 am   BACKBONE|DICT|INTERRES
    24   21   58 1    
    25   21   22 1    
    26   25   26 1    
    27   25   28 1    
    28   25   27 1    
    29   28   29 ar   
    30   28   33 ar   
    31   29   32 1    
    32   29   30 ar   
    33   30   31 1    
    34   30   37 ar   
    35   33   35 ar   
    36   33   34 1    
    37   35   37 ar   
    38   35   36 1    
    39   37   38 1    
    40   38   39 1    
    41   39   40 ar   
    42   39   44 ar   
    43   40   43 1    
    44   40   41 ar   
    45   41   42 1    
    46   41   48 ar   
    47   44   46 ar   
    48   44   45 1    
    49   46   48 ar   
    50   46   47 1    
    51   48   49 1    
    52   49   50 2    
    53   49   51 1    
    54   51   53 1    
    55   51   52 1    
    56   51   54 1    
    57   54   55 1    
    58   54   56 am   BACKBONE|DICT|INTERRES
    59   56   57 2    
    60   56   58 1    
    61   58   59 1    
    62   58   60 1    
    63   60   63 1    
    64   60   61 1    
    65   60   62 1    
    66   63   72 ar   
    67   63   64 ar   
    68   64   66 ar   
    69   64   65 1    
    70   66   68 ar   
    71   66   67 1    
    72   68   70 ar   
    73   68   69 1    
    74   70   71 1    
    75   70   72 ar   
@<TRIPOS>SUBSTRUCTURE
     1 UNK         1 GROUP             0       ****    0 ROOT    
@<TRIPOS>MOLECULE
Cpd5-4000
72   75    1
SMALL
USER_CHARGES


@<TRIPOS>ATOM
      1 C1         36.3781   38.2922   26.7607 C.3       1 UNK         0.0000 
      2 H2         37.1767   38.8822   26.2948 H         1 UNK         0.0000 
      3 H3         35.7806   37.9318   25.9132 H         1 UNK         0.0000 
      4 H4         35.7896   38.8507   27.4987 H         1 UNK         0.0000 
      5 C5         37.0200   37.1222   27.4957 C.3       1 UNK         0.0000 
      6 C6         38.2003   36.6792   26.6489 C.3       1 UNK         0.0000 
      7 H7         38.3818   35.6194   26.8676 H         1 UNK         0.0000 
      8 H8         38.0403   36.8204   25.5730 H         1 UNK         0.0000 
      9 H9         39.0868   37.2590   26.9343 H         1 UNK         0.0000 
     10 C10        35.9807   35.9634   27.7869 C.3       1 UNK         0.0000 
     11 H11        36.4172   35.1202   28.3356 H         1 UNK         0.0000 
     12 H12        35.1791   36.3628   28.4205 H         1 UNK         0.0000 
     13 H13        35.4647   35.6473   26.8723 H         1 UNK         0.0000 
     14 O14        37.4548   37.6102   28.7649 O.3       1 UNK         0.0000 
     15 C15        38.0285   36.6894   29.6619 C.2       1 UNK         0.0000 
     16 O16        38.4862   35.6465   29.3600 O.2       1 UNK         0.0000 
     17 N17        38.0170   37.3262   30.8425 N.am      1 UNK         0.0000 
     18 H18        37.6193   38.2539   30.9250 H         1 UNK         0.0000 
     19 C19        38.7222   36.8084   32.0689 C.3       1 UNK         0.0000 
     20 C20        38.0473   37.1776   33.3861 C.2       1 UNK         0.0000 
     21 N21        37.2569   36.2092   33.8946 N.am      1 UNK         0.0000 
     22 H22        37.1996   35.2984   33.4556 H         1 UNK         0.0000 
     23 O23        38.1487   38.2667   33.8945 O.2       1 UNK         0.0000 
     24 H24        38.7736   35.7132   32.0214 H         1 UNK         0.0000 
     25 C25        40.1877   37.3025   32.1654 C.3       1 UNK         0.0000 
     26 H26        40.2874   38.3934   32.2056 H         1 UNK         0.0000 
     27 H27        40.7113   36.9153   31.2820 H         1 UNK         0.0000 
     28 C28        40.9096   36.7994   33.3649 C.ar      1 UNK         0.0000 
     29 C29        41.1407   37.6842   34.4874 C.ar      1 UNK         0.0000 
     30 C30        41.6715   37.1805   35.6609 C.ar      1 UNK         0.0000 
     31 H31        41.9812   37.8885   36.4245 H         1 UNK         0.0000 
     32 H32        40.8801   38.7373   34.4438 H         1 UNK         0.0000 
     33 C33        41.3044   35.4846   33.4185 C.ar      1 UNK         0.0000 
     34 H34        41.0799   34.8155   32.5918 H         1 UNK         0.0000 
     35 C35        41.9968   34.9469   34.5420 C.ar      1 UNK         0.0000 
     36 H36        42.1453   33.8738   34.6196 H         1 UNK         0.0000 
     37 C37        42.0932   35.8285   35.7146 C.ar      1 UNK         0.0000 
     38 O38        42.2565   35.1537   36.9305 O.3       1 UNK         0.0000 
     39 C39        41.0447   34.8893   37.5482 C.ar      1 UNK         0.0000 
     40 C40        40.7266   35.5757   38.7285 C.ar      1 UNK         0.0000 
     41 C41        39.4253   35.5578   39.3229 C.ar      1 UNK         0.0000 
     42 H42        39.2180   36.2736   40.1118 H         1 UNK         0.0000 
     43 H43        41.4320   36.3363   39.0507 H         1 UNK         0.0000 
     44 C44        40.0457   34.0389   37.0100 C.ar      1 UNK         0.0000 
     45 H45        40.3214   33.5187   36.0971 H         1 UNK         0.0000 
     46 C46        38.7854   34.0194   37.6068 C.ar      1 UNK         0.0000 
     47 H47        38.0099   33.4496   37.1038 H         1 UNK         0.0000 
     48 C48        38.4089   34.7988   38.7332 C.ar      1 UNK         0.0000 
     49 C49        37.0171   34.8273   39.2518 C.2       1 UNK         0.0000 
     50 O50        36.8080   35.2980   40.3547 O.2       1 UNK         0.0000 
     51 C51        35.9445   34.4253   38.2622 C.3       1 UNK         0.0000 
     52 H52        36.1717   33.4300   37.8620 H         1 UNK         0.0000 
     53 H53        35.0681   34.2765   38.9053 H         1 UNK         0.0000 
     54 N54        35.8972   35.5347   37.2731 N.am      1 UNK         0.0000 
     55 H55        35.6261   36.4518   37.6048 H         1 UNK         0.0000 
     56 C56        36.1353   35.2606   35.9930 C.2       1 UNK         0.0000 
     57 O57        36.2285   34.1136   35.5899 O.2       1 UNK         0.0000 
     58 C58        36.4582   36.5092   35.0984 C.3       1 UNK         0.0000 
     59 H59        37.0788   37.1041   35.7797 H         1 UNK         0.0000 
     60 C60        35.1667   37.2842   34.6866 C.3       1 UNK         0.0000 
     61 H61        34.4796   36.5577   34.2353 H         1 UNK         0.0000 
     62 H62        35.3450   38.0660   33.9378 H         1 UNK         0.0000 
     63 C63        34.4818   37.8336   35.9541 C.ar      1 UNK         0.0000 
     64 C64        33.1816   37.4463   36.2297 C.ar      1 UNK         0.0000 
     65 H65        32.5764   36.8718   35.5353 H         1 UNK         0.0000 
     66 C66        32.5478   37.9941   37.3632 C.ar      1 UNK         0.0000 
     67 H67        31.4945   37.8297   37.5720 H         1 UNK         0.0000 
     68 C68        33.3311   38.6550   38.2966 C.ar      1 UNK         0.0000 
     69 H69        32.9166   39.1336   39.1791 H         1 UNK         0.0000 
     70 C70        34.6925   38.9140   37.9963 C.ar      1 UNK         0.0000 
     71 H71        35.3820   39.3475   38.7203 H         1 UNK         0.0000 
     72 N72        35.2438   38.5622   36.7604 N.ar      1 UNK         0.0000 
@<TRIPOS>BOND
     1    1    4 1    
     2    1    5 1    
     3    1    2 1    
     4    1    3 1    
     5    5   10 1    
     6    5   14 1    
     7    5    6 1    
     8    6    7 1    
     9    6    9 1    
    10    6    8 1    
    11   10   11 1    
    12   10   12 1    
    13   10   13 1    
    14   14   15 1    
    15   15   17 am   BACKBONE|DICT|INTERRES
    16   15   16 2    
    17   17   18 1    
    18   17   19 1    
    19   19   24 1    
    20   19   25 1    
    21   19   20 1    
    22   20   21 am   BACKBONE|DICT|INTERRES
    23   20   23 2    
    24   21   58 1    
    25   21   22 1    
    26   25   26 1    
    27   25   28 1    
    28   25   27 1    
    29   28   33 ar   
    30   28   29 ar   
    31   29   32 1    
    32   29   30 ar   
    33   30   37 ar   
    34   30   31 1    
    35   33   35 ar   
    36   33   34 1    
    37   35   36 1    
    38   35   37 ar   
    39   37   38 1    
    40   38   39 1    
    41   39   40 ar   
    42   39   44 ar   
    43   40   41 ar   
    44   40   43 1    
    45   41   42 1    
    46   41   48 ar   
    47   44   46 ar   
    48   44   45 1    
    49   46   48 ar   
    50   46   47 1    
    51   48   49 1    
    52   49   50 2    
    53   49   51 1    
    54   51   53 1    
    55   51   52 1    
    56   51   54 1    
    57   54   55 1    
    58   54   56 am   BACKBONE|DICT|INTERRES
    59   56   57 2    
    60   56   58 1    
    61   58   59 1    
    62   58   60 1    
    63   60   63 1    
    64   60   61 1    
    65   60   62 1    
    66   63   64 ar   
    67   63   72 ar   
    68   64   66 ar   
    69   64   65 1    
    70   66   67 1    
    71   66   68 ar   
    72   68   69 1    
    73   68   70 ar   
    74   70   71 1    
    75   70   72 ar   
@<TRIPOS>SUBSTRUCTURE
     1 UNK         1 GROUP             0       ****    0 ROOT    
@<TRIPOS>MOLECULE
Cpd5-4500
72   75    1
SMALL
USER_CHARGES


@<TRIPOS>ATOM
      1 C1         36.2635   36.5444   26.7451 C.3       1 UNK         0.0000 
      2 H2         35.3948   36.6486   27.4057 H         1 UNK         0.0000 
      3 H3         36.7438   37.5300   26.7154 H         1 UNK         0.0000 
      4 H4         35.8685   36.2631   25.7611 H         1 UNK         0.0000 
      5 C5         37.2841   35.6446   27.4788 C.3       1 UNK         0.0000 
      6 C6         38.5351   35.4914   26.5873 C.3       1 UNK         0.0000 
      7 H7         39.1509   36.3987   26.5643 H         1 UNK         0.0000 
      8 H8         39.0646   34.6578   27.0643 H         1 UNK         0.0000 
      9 H9         38.1180   35.2077   25.6123 H         1 UNK         0.0000 
     10 C10        36.6156   34.2930   27.8489 C.3       1 UNK         0.0000 
     11 H11        37.3454   33.6494   28.3559 H         1 UNK         0.0000 
     12 H12        35.7589   34.4166   28.5218 H         1 UNK         0.0000 
     13 H13        36.2563   33.6738   27.0176 H         1 UNK         0.0000 
     14 O14        37.4974   36.3326   28.7450 O.3       1 UNK         0.0000 
     15 C15        38.3917   35.9449   29.6132 C.2       1 UNK         0.0000 
     16 O16        39.1706   35.0487   29.6161 O.2       1 UNK         0.0000 
     17 N17        38.2052   36.7649   30.7106 N.am      1 UNK         0.0000 
     18 H18        37.4996   37.4670   30.5257 H         1 UNK         0.0000 
     19 C19        38.7975   36.5991   32.0253 C.3       1 UNK         0.0000 
     20 C20        38.0012   37.1563   33.1784 C.2       1 UNK         0.0000 
     21 N21        37.0918   36.2866   33.7436 N.am      1 UNK         0.0000 
     22 H22        37.2256   35.2927   33.6085 H         1 UNK         0.0000 
     23 O23        38.0942   38.2844   33.6477 O.2       1 UNK         0.0000 
     24 H24        38.8004   35.5090   32.1448 H         1 UNK         0.0000 
     25 C25        40.2572   37.1496   32.0521 C.3       1 UNK         0.0000 
     26 H26        40.1418   38.2405   32.0626 H         1 UNK         0.0000 
     27 H27        40.8158   36.8222   31.1668 H         1 UNK         0.0000 
     28 C28        40.9694   36.6539   33.3345 C.ar      1 UNK         0.0000 
     29 C29        40.9679   37.5376   34.4002 C.ar      1 UNK         0.0000 
     30 C30        41.4867   37.2366   35.6275 C.ar      1 UNK         0.0000 
     31 H31        41.3746   37.9128   36.4693 H         1 UNK         0.0000 
     32 H32        40.4524   38.4869   34.2987 H         1 UNK         0.0000 
     33 C33        41.5995   35.4271   33.4124 C.ar      1 UNK         0.0000 
     34 H34        41.6882   34.6945   32.6160 H         1 UNK         0.0000 
     35 C35        41.9981   35.0598   34.6874 C.ar      1 UNK         0.0000 
     36 H36        42.4075   34.0695   34.8618 H         1 UNK         0.0000 
     37 C37        41.8665   35.9260   35.7851 C.ar      1 UNK         0.0000 
     38 O38        42.1504   35.4677   37.0320 O.3       1 UNK         0.0000 
     39 C39        41.0817   34.9272   37.6986 C.ar      1 UNK         0.0000 
     40 C40        40.8931   35.4325   38.9503 C.ar      1 UNK         0.0000 
     41 C41        39.6433   35.2840   39.5862 C.ar      1 UNK         0.0000 
     42 H42        39.4994   35.6738   40.5892 H         1 UNK         0.0000 
     43 H43        41.7196   36.0061   39.3593 H         1 UNK         0.0000 
     44 C44        40.1112   34.2252   36.9881 C.ar      1 UNK         0.0000 
     45 H45        40.2543   33.7703   36.0134 H         1 UNK         0.0000 
     46 C46        38.8601   34.0890   37.5839 C.ar      1 UNK         0.0000 
     47 H47        38.0528   33.6653   36.9937 H         1 UNK         0.0000 
     48 C48        38.5839   34.5874   38.8967 C.ar      1 UNK         0.0000 
     49 C49        37.1022   34.6591   39.3005 C.2       1 UNK         0.0000 
     50 O50        36.8301   34.7852   40.5477 O.2       1 UNK         0.0000 
     51 C51        35.9936   34.5427   38.2103 C.3       1 UNK         0.0000 
     52 H52        36.1591   33.5411   37.7966 H         1 UNK         0.0000 
     53 H53        35.0445   34.5188   38.7593 H         1 UNK         0.0000 
     54 N54        36.0346   35.6847   37.2436 N.am      1 UNK         0.0000 
     55 H55        36.1796   36.6363   37.5605 H         1 UNK         0.0000 
     56 C56        36.0657   35.5137   35.9239 C.2       1 UNK         0.0000 
     57 O57        35.8050   34.4189   35.4633 O.2       1 UNK         0.0000 
     58 C58        36.3760   36.7568   34.9818 C.3       1 UNK         0.0000 
     59 H59        37.1439   37.3256   35.5201 H         1 UNK         0.0000 
     60 C60        35.1375   37.5712   34.6136 C.3       1 UNK         0.0000 
     61 H61        34.5806   36.9885   33.8694 H         1 UNK         0.0000 
     62 H62        35.4727   38.4912   34.1206 H         1 UNK         0.0000 
     63 C63        34.1999   37.9691   35.6914 C.ar      1 UNK         0.0000 
     64 C64        32.8663   37.8429   35.5542 C.ar      1 UNK         0.0000 
     65 H65        32.4378   37.3255   34.7002 H         1 UNK         0.0000 
     66 C66        32.0736   38.2191   36.6194 C.ar      1 UNK         0.0000 
     67 H67        30.9972   38.0740   36.6146 H         1 UNK         0.0000 
     68 C68        32.6776   38.5738   37.8183 C.ar      1 UNK         0.0000 
     69 H69        32.1085   38.7358   38.7290 H         1 UNK         0.0000 
     70 C70        34.0580   38.5535   37.9228 C.ar      1 UNK         0.0000 
     71 H71        34.6641   38.8313   38.7839 H         1 UNK         0.0000 
     72 N72        34.8074   38.3452   36.8283 N.ar      1 UNK         0.0000 
@<TRIPOS>BOND
     1    1    3 1    
     2    1    2 1    
     3    1    5 1    
     4    1    4 1    
     5    5   10 1    
     6    5   14 1    
     7    5    6 1    
     8    6    7 1    
     9    6    8 1    
    10    6    9 1    
    11   10   11 1    
    12   10   12 1    
    13   10   13 1    
    14   14   15 1    
    15   15   17 am   BACKBONE|DICT|INTERRES
    16   15   16 2    
    17   17   19 1    
    18   17   18 1    
    19   19   24 1    
    20   19   25 1    
    21   19   20 1    
    22   20   21 am   BACKBONE|DICT|INTERRES
    23   20   23 2    
    24   21   58 1    
    25   21   22 1    
    26   25   26 1    
    27   25   28 1    
    28   25   27 1    
    29   28   29 ar   
    30   28   33 ar   
    31   29   32 1    
    32   29   30 ar   
    33   30   31 1    
    34   30   37 ar   
    35   33   35 ar   
    36   33   34 1    
    37   35   36 1    
    38   35   37 ar   
    39   37   38 1    
    40   38   39 1    
    41   39   40 ar   
    42   39   44 ar   
    43   40   41 ar   
    44   40   43 1    
    45   41   42 1    
    46   41   48 ar   
    47   44   46 ar   
    48   44   45 1    
    49   46   48 ar   
    50   46   47 1    
    51   48   49 1    
    52   49   50 2    
    53   49   51 1    
    54   51   53 1    
    55   51   52 1    
    56   51   54 1    
    57   54   55 1    
    58   54   56 am   BACKBONE|DICT|INTERRES
    59   56   57 2    
    60   56   58 1    
    61   58   59 1    
    62   58   60 1    
    63   60   63 1    
    64   60   61 1    
    65   60   62 1    
    66   63   72 ar   
    67   63   64 ar   
    68   64   66 ar   
    69   64   65 1    
    70   66   68 ar   
    71   66   67 1    
    72   68   70 ar   
    73   68   69 1    
    74   70   71 1    
    75   70   72 ar   
@<TRIPOS>SUBSTRUCTURE
     1 UNK         1 GROUP             0       ****    0 ROOT    
@<TRIPOS>MOLECULE
Cpd5-5000
72   75    1
SMALL
USER_CHARGES


@<TRIPOS>ATOM
      1 C1         37.5832   38.6326   26.3575 C.3       1 UNK         0.0000 
      2 H2         37.7761   38.5162   25.2846 H         1 UNK         0.0000 
      3 H3         36.5053   38.6189   26.5605 H         1 UNK         0.0000 
      4 H4         37.8736   39.6495   26.6471 H         1 UNK         0.0000 
      5 C5         38.3096   37.4832   27.0945 C.3       1 UNK         0.0000 
      6 C6         39.7730   37.5194   26.6156 C.3       1 UNK         0.0000 
      7 H7         40.3607   36.8353   27.2408 H         1 UNK         0.0000 
      8 H8         39.7940   37.1411   25.5872 H         1 UNK         0.0000 
      9 H9         40.2385   38.5056   26.7259 H         1 UNK         0.0000 
     10 C10        37.6066   36.0921   26.8120 C.3       1 UNK         0.0000 
     11 H11        36.5941   36.0347   27.2311 H         1 UNK         0.0000 
     12 H12        37.6508   35.9133   25.7312 H         1 UNK         0.0000 
     13 H13        38.2448   35.3147   27.2493 H         1 UNK         0.0000 
     14 O14        38.2119   37.7679   28.5259 O.3       1 UNK         0.0000 
     15 C15        38.6838   36.9827   29.4774 C.2       1 UNK         0.0000 
     16 O16        39.4044   36.0441   29.2483 O.2       1 UNK         0.0000 
     17 N17        38.3706   37.5245   30.6843 N.am      1 UNK         0.0000 
     18 H18        37.8575   38.3945   30.7589 H         1 UNK         0.0000 
     19 C19        38.8317   37.0690   31.9295 C.3       1 UNK         0.0000 
     20 C20        37.9307   37.3671   33.1394 C.2       1 UNK         0.0000 
     21 N21        37.4247   36.3221   33.8290 N.am      1 UNK         0.0000 
     22 H22        37.8622   35.4184   33.6949 H         1 UNK         0.0000 
     23 O23        37.6182   38.5635   33.3182 O.2       1 UNK         0.0000 
     24 H24        38.8665   35.9775   32.0296 H         1 UNK         0.0000 
     25 C25        40.2364   37.5592   32.2615 C.3       1 UNK         0.0000 
     26 H26        40.3486   38.6210   32.5159 H         1 UNK         0.0000 
     27 H27        40.8310   37.4508   31.3470 H         1 UNK         0.0000 
     28 C28        40.8087   36.8296   33.4674 C.ar      1 UNK         0.0000 
     29 C29        40.9697   37.5979   34.5915 C.ar      1 UNK         0.0000 
     30 C30        41.5745   37.0237   35.7007 C.ar      1 UNK         0.0000 
     31 H31        41.6763   37.5377   36.6520 H         1 UNK         0.0000 
     32 H32        40.6152   38.6229   34.6351 H         1 UNK         0.0000 
     33 C33        41.1980   35.5314   33.3458 C.ar      1 UNK         0.0000 
     34 H34        40.9817   34.9500   32.4544 H         1 UNK         0.0000 
     35 C35        41.6026   34.8753   34.5396 C.ar      1 UNK         0.0000 
     36 H36        41.6924   33.7949   34.6124 H         1 UNK         0.0000 
     37 C37        41.8261   35.6330   35.7444 C.ar      1 UNK         0.0000 
     38 O38        42.1372   34.9925   36.8917 O.3       1 UNK         0.0000 
     39 C39        41.0291   34.7240   37.6352 C.ar      1 UNK         0.0000 
     40 C40        40.7059   35.6559   38.6885 C.ar      1 UNK         0.0000 
     41 C41        39.4512   35.6154   39.2930 C.ar      1 UNK         0.0000 
     42 H42        39.2268   36.2690   40.1307 H         1 UNK         0.0000 
     43 H43        41.4080   36.4687   38.8506 H         1 UNK         0.0000 
     44 C44        40.1045   33.7257   37.3446 C.ar      1 UNK         0.0000 
     45 H45        40.3662   32.9954   36.5844 H         1 UNK         0.0000 
     46 C46        38.8887   33.6740   38.0044 C.ar      1 UNK         0.0000 
     47 H47        38.2069   32.8710   37.7393 H         1 UNK         0.0000 
     48 C48        38.5217   34.6278   39.0030 C.ar      1 UNK         0.0000 
     49 C49        37.0646   34.8950   39.3395 C.2       1 UNK         0.0000 
     50 O50        36.7220   35.4680   40.3846 O.2       1 UNK         0.0000 
     51 C51        36.0446   34.5558   38.2568 C.3       1 UNK         0.0000 
     52 H52        36.2288   33.5804   37.7896 H         1 UNK         0.0000 
     53 H53        35.0198   34.4973   38.6436 H         1 UNK         0.0000 
     54 N54        36.0649   35.5374   37.1849 N.am      1 UNK         0.0000 
     55 H55        35.5430   36.4012   37.2726 H         1 UNK         0.0000 
     56 C56        36.5011   35.2646   35.8973 C.2       1 UNK         0.0000 
     57 O57        36.9908   34.1519   35.6214 O.2       1 UNK         0.0000 
     58 C58        36.4132   36.4312   34.8889 C.3       1 UNK         0.0000 
     59 H59        36.5328   37.4271   35.3348 H         1 UNK         0.0000 
     60 C60        35.0088   36.4090   34.2887 C.3       1 UNK         0.0000 
     61 H61        34.9447   35.6245   33.5245 H         1 UNK         0.0000 
     62 H62        34.7633   37.4088   33.9091 H         1 UNK         0.0000 
     63 C63        33.9203   36.0784   35.3069 C.ar      1 UNK         0.0000 
     64 C64        33.3016   34.8032   35.3154 C.ar      1 UNK         0.0000 
     65 H65        33.6114   34.0489   34.5981 H         1 UNK         0.0000 
     66 C66        32.2412   34.5034   36.2091 C.ar      1 UNK         0.0000 
     67 H67        31.6232   33.6237   36.0531 H         1 UNK         0.0000 
     68 C68        31.9867   35.4494   37.1783 C.ar      1 UNK         0.0000 
     69 H69        31.3095   35.3374   38.0196 H         1 UNK         0.0000 
     70 C70        32.6901   36.7251   37.0925 C.ar      1 UNK         0.0000 
     71 H71        32.3064   37.4847   37.7720 H         1 UNK         0.0000 
     72 N72        33.6023   37.0675   36.1802 N.ar      1 UNK         0.0000 
@<TRIPOS>BOND
     1    1    3 1    
     2    1    4 1    
     3    1    5 1    
     4    1    2 1    
     5    5   14 1    
     6    5    6 1    
     7    5   10 1    
     8    6    9 1    
     9    6    7 1    
    10    6    8 1    
    11   10   13 1    
    12   10   11 1    
    13   10   12 1    
    14   14   15 1    
    15   15   17 am   BACKBONE|DICT|INTERRES
    16   15   16 2    
    17   17   18 1    
    18   17   19 1    
    19   19   24 1    
    20   19   25 1    
    21   19   20 1    
    22   20   23 2    
    23   20   21 am   BACKBONE|DICT|INTERRES
    24   21   58 1    
    25   21   22 1    
    26   25   26 1    
    27   25   28 1    
    28   25   27 1    
    29   28   29 ar   
    30   28   33 ar   
    31   29   32 1    
    32   29   30 ar   
    33   30   31 1    
    34   30   37 ar   
    35   33   35 ar   
    36   33   34 1    
    37   35   36 1    
    38   35   37 ar   
    39   37   38 1    
    40   38   39 1    
    41   39   40 ar   
    42   39   44 ar   
    43   40   43 1    
    44   40   41 ar   
    45   41   42 1    
    46   41   48 ar   
    47   44   46 ar   
    48   44   45 1    
    49   46   48 ar   
    50   46   47 1    
    51   48   49 1    
    52   49   50 2    
    53   49   51 1    
    54   51   53 1    
    55   51   52 1    
    56   51   54 1    
    57   54   55 1    
    58   54   56 am   BACKBONE|DICT|INTERRES
    59   56   57 2    
    60   56   58 1    
    61   58   59 1    
    62   58   60 1    
    63   60   63 1    
    64   60   61 1    
    65   60   62 1    
    66   63   72 ar   
    67   63   64 ar   
    68   64   66 ar   
    69   64   65 1    
    70   66   68 ar   
    71   66   67 1    
    72   68   69 1    
    73   68   70 ar   
    74   70   71 1    
    75   70   72 ar   
@<TRIPOS>SUBSTRUCTURE
     1 UNK         1 GROUP             0       ****    0 ROOT    
