@<TRIPOS>MOLECULE
Cpd5-500
82   84    1
SMALL
USER_CHARGES


@<TRIPOS>ATOM
      1 C1         -6.7334    0.6460    0.5718 C.3       1 UNK         0.0000 
      2 H2         -6.6400    1.7186    0.3984 H         1 UNK         0.0000 
      3 H3         -7.7941    0.3788    0.5626 H         1 UNK         0.0000 
      4 H4         -6.3262    0.4030    1.5581 H         1 UNK         0.0000 
      5 C5         -6.0077   -0.1543   -0.5053 C.3       1 UNK         0.0000 
      6 C6         -6.4779    0.2023   -1.9127 C.3       1 UNK         0.0000 
      7 H7         -5.8797   -0.3330   -2.6569 H         1 UNK         0.0000 
      8 H8         -7.5206   -0.1082   -2.0273 H         1 UNK         0.0000 
      9 H9         -6.4065    1.2741   -2.0980 H         1 UNK         0.0000 
     10 C10        -6.1636   -1.6504   -0.2585 C.3       1 UNK         0.0000 
     11 H11        -5.7672   -1.9197    0.7246 H         1 UNK         0.0000 
     12 H12        -7.2216   -1.9220   -0.2987 H         1 UNK         0.0000 
     13 H13        -5.6273   -2.2223   -1.0219 H         1 UNK         0.0000 
     14 O14        -4.5636    0.0432   -0.3846 O.3       1 UNK         0.0000 
     15 C15        -4.0096    1.2622   -0.5481 C.2       1 UNK         0.0000 
     16 O16        -4.6179    2.2840   -0.8322 O.2       1 UNK         0.0000 
     17 N17        -2.6671    1.1812   -0.3711 N.am      1 UNK         0.0000 
     18 H18        -2.3131    0.3067    0.0291 H         1 UNK         0.0000 
     19 C19        -1.8675    2.3841   -0.3680 C.3       1 UNK         0.0000 
     20 C20        -0.4353    2.1662   -0.8631 C.2       1 UNK         0.0000 
     21 N21         0.0420    0.9128   -1.0087 N.am      1 UNK         0.0000 
     22 H22        -0.5153    0.0766   -0.8183 H         1 UNK         0.0000 
     23 O23         0.2633    3.1598   -1.0857 O.2       1 UNK         0.0000 
     24 H24        -2.3221    3.0787   -1.0797 H         1 UNK         0.0000 
     25 C25        -1.8519    3.0794    1.0234 C.3       1 UNK         0.0000 
     26 H26        -2.8957    3.2386    1.3112 H         1 UNK         0.0000 
     27 H27        -1.3727    4.0559    0.9144 H         1 UNK         0.0000 
     28 C28        -1.1166    2.2361    2.0315 C.ar      1 UNK         0.0000 
     29 C29        -1.7292    1.1383    2.6473 C.ar      1 UNK         0.0000 
     30 C30        -0.9776    0.2038    3.3606 C.ar      1 UNK         0.0000 
     31 H31        -1.4375   -0.6851    3.7808 H         1 UNK         0.0000 
     32 H32        -2.7978    0.9801    2.5255 H         1 UNK         0.0000 
     33 C33         0.2503    2.4464    2.2478 C.ar      1 UNK         0.0000 
     34 H34         0.7302    3.3196    1.8118 H         1 UNK         0.0000 
     35 C35         1.0142    1.5174    2.9469 C.ar      1 UNK         0.0000 
     36 H36         2.0890    1.6360    3.0526 H         1 UNK         0.0000 
     37 C37         0.3987    0.3736    3.4445 C.ar      1 UNK         0.0000 
     38 O38         1.2048   -0.6518    3.9418 O.3       1 UNK         0.0000 
     39 C39         1.8026   -1.3590    2.9124 C.ar      1 UNK         0.0000 
     40 C40         3.1736   -1.6034    2.9756 C.ar      1 UNK         0.0000 
     41 C41         3.8063   -2.2147    1.8933 C.ar      1 UNK         0.0000 
     42 H42         4.8816   -2.3651    1.9048 H         1 UNK         0.0000 
     43 H43         3.7361   -1.2692    3.8410 H         1 UNK         0.0000 
     44 C44         1.0456   -1.7856    1.8177 C.ar      1 UNK         0.0000 
     45 H45        -0.0235   -1.6089    1.7570 H         1 UNK         0.0000 
     46 C46         1.6899   -2.3773    0.7441 C.ar      1 UNK         0.0000 
     47 H47         1.0957   -2.6572   -0.1191 H         1 UNK         0.0000 
     48 C48         3.0760   -2.5711    0.7545 C.ar      1 UNK         0.0000 
     49 C49         3.7835   -3.0411   -0.4704 C.2       1 UNK         0.0000 
     50 O50         4.8294   -3.6626   -0.4227 O.2       1 UNK         0.0000 
     51 C51         3.1848   -2.6306   -1.8267 C.3       1 UNK         0.0000 
     52 H52         3.9196   -2.8713   -2.5977 H         1 UNK         0.0000 
     53 H53         2.2698   -3.1969   -2.0263 H         1 UNK         0.0000 
     54 N54         2.8640   -1.2162   -1.8247 N.am      1 UNK         0.0000 
     55 H55         3.6291   -0.5677   -1.5985 H         1 UNK         0.0000 
     56 C56         1.5998   -0.7498   -1.8285 C.2       1 UNK         0.0000 
     57 O57         0.6213   -1.4442   -2.1051 O.2       1 UNK         0.0000 
     58 C58         1.4268    0.7254   -1.4213 C.3       1 UNK         0.0000 
     59 H59         1.6032    1.3450   -2.3111 H         1 UNK         0.0000 
     60 C60         2.4021    1.1815   -0.3014 C.3       1 UNK         0.0000 
     61 H61         2.6288    0.3383    0.3630 H         1 UNK         0.0000 
     62 H62         1.8760    1.9314    0.2853 H         1 UNK         0.0000 
     63 C63         3.6794    1.8038   -0.8103 C.ar      1 UNK         0.0000 
     64 C64         3.8348    3.1925   -0.8321 C.ar      1 UNK         0.0000 
     65 H65         3.0270    3.8264   -0.4807 H         1 UNK         0.0000 
     66 C66         5.0250    3.7307   -1.3113 C.ar      1 UNK         0.0000 
     67 H67         5.1714    4.8059   -1.3350 H         1 UNK         0.0000 
     68 C68         6.0240    2.8688   -1.7581 C.ar      1 UNK         0.0000 
     69 H69         6.9678    3.2430   -2.1379 H         1 UNK         0.0000 
     70 C70         5.7809    1.4994   -1.7113 C.ar      1 UNK         0.0000 
     71 H71         6.5278    0.7899   -2.0566 H         1 UNK         0.0000 
     72 N72         4.6402    0.9771   -1.2479 N.ar      1 UNK         0.0000 
     73 C73        -1.3169   -3.7906   -0.9303 C.3       1 UNK         0.0000 
     74 H74        -0.9801   -4.1854    0.0296 H         1 UNK         0.0000 
     75 H75        -0.4822   -3.4006   -1.5165 H         1 UNK         0.0000 
     76 H76        -1.8636   -4.5617   -1.4772 H         1 UNK         0.0000 
     77 S77        -2.4533   -2.4361   -0.5747 S.3       1 UNK         0.0000 
     78 C78        -2.6324   -1.8243   -2.2636 C.3       1 UNK         0.0000 
     79 H79        -3.0730   -2.6155   -2.8742 H         1 UNK         0.0000 
     80 H80        -1.6397   -1.5424   -2.6221 H         1 UNK         0.0000 
     81 H81        -3.3021   -0.9648   -2.2223 H         1 UNK         0.0000 
     82 O82        -1.6028   -1.3776    0.1618 O.2       1 UNK         0.0000 
@<TRIPOS>BOND
     1    1    4 1    
     2    1    2 1    
     3    1    3 1    
     4    1    5 1    
     5    5   14 1    
     6    5   10 1    
     7    5    6 1    
     8    6    7 1    
     9    6    8 1    
    10    6    9 1    
    11   10   11 1    
    12   10   12 1    
    13   10   13 1    
    14   14   15 1    
    15   15   17 am   BACKBONE|DICT|INTERRES
    16   15   16 2    
    17   17   19 1    
    18   17   18 1    
    19   19   24 1    
    20   19   25 1    
    21   19   20 1    
    22   20   21 am   BACKBONE|DICT|INTERRES
    23   20   23 2    
    24   21   22 1    
    25   21   58 1    
    26   25   26 1    
    27   25   28 1    
    28   25   27 1    
    29   28   33 ar   
    30   28   29 ar   
    31   29   30 ar   
    32   29   32 1    
    33   30   37 ar   
    34   30   31 1    
    35   33   35 ar   
    36   33   34 1    
    37   35   36 1    
    38   35   37 ar   
    39   37   38 1    
    40   38   39 1    
    41   39   40 ar   
    42   39   44 ar   
    43   40   43 1    
    44   40   41 ar   
    45   41   42 1    
    46   41   48 ar   
    47   44   45 1    
    48   44   46 ar   
    49   46   48 ar   
    50   46   47 1    
    51   48   49 1    
    52   49   50 2    
    53   49   51 1    
    54   51   54 1    
    55   51   52 1    
    56   51   53 1    
    57   54   55 1    
    58   54   56 am   BACKBONE|DICT|INTERRES
    59   56   58 1    
    60   56   57 2    
    61   58   59 1    
    62   58   60 1    
    63   60   62 1    
    64   60   61 1    
    65   60   63 1    
    66   63   64 ar   
    67   63   72 ar   
    68   64   65 1    
    69   64   66 ar   
    70   66   67 1    
    71   66   68 ar   
    72   68   70 ar   
    73   68   69 1    
    74   70   72 ar   
    75   70   71 1    
    76   73   77 1    
    77   73   74 1    
    78   73   75 1    
    79   73   76 1    
    80   77   82 2    
    81   77   78 1    
    82   78   81 1    
    83   78   79 1    
    84   78   80 1    
@<TRIPOS>SUBSTRUCTURE
     1 UNK         1 GROUP             0       ****    0 ROOT    
@<TRIPOS>MOLECULE
Cpd5-1000
72   75    1
SMALL
USER_CHARGES


@<TRIPOS>ATOM
      1 C1         -5.5903   -0.1262   -3.1761 C.3       1 UNK         0.0000 
      2 H2         -6.2569    0.1953   -2.3702 H         1 UNK         0.0000 
      3 H3         -5.1774    0.7517   -3.6738 H         1 UNK         0.0000 
      4 H4         -6.1784   -0.6982   -3.8996 H         1 UNK         0.0000 
      5 C5         -4.4868   -1.0195   -2.6181 C.3       1 UNK         0.0000 
      6 C6         -3.4671   -1.4206   -3.6795 C.3       1 UNK         0.0000 
      7 H7         -3.9597   -2.0518   -4.4246 H         1 UNK         0.0000 
      8 H8         -3.0491   -0.5470   -4.1807 H         1 UNK         0.0000 
      9 H9         -2.6566   -1.9970   -3.2232 H         1 UNK         0.0000 
     10 C10        -5.0830   -2.2551   -1.9541 C.3       1 UNK         0.0000 
     11 H11        -4.2933   -2.8743   -1.5196 H         1 UNK         0.0000 
     12 H12        -5.7802   -1.9649   -1.1632 H         1 UNK         0.0000 
     13 H13        -5.6233   -2.8472   -2.6972 H         1 UNK         0.0000 
     14 O14        -3.8132   -0.3497   -1.5032 O.3       1 UNK         0.0000 
     15 C15        -3.1358    0.7916   -1.6903 C.2       1 UNK         0.0000 
     16 O16        -3.0354    1.4066   -2.7401 O.2       1 UNK         0.0000 
     17 N17        -2.5472    1.1866   -0.5264 N.am      1 UNK         0.0000 
     18 H18        -2.6838    0.6122    0.2950 H         1 UNK         0.0000 
     19 C19        -1.8013    2.4230   -0.4444 C.3       1 UNK         0.0000 
     20 C20        -0.3324    2.2784   -0.8775 C.2       1 UNK         0.0000 
     21 N21         0.1263    1.0283   -1.0571 N.am      1 UNK         0.0000 
     22 H22        -0.5022    0.2356   -0.9855 H         1 UNK         0.0000 
     23 O23         0.3705    3.2824   -1.0099 O.2       1 UNK         0.0000 
     24 H24        -2.2481    3.1324   -1.1470 H         1 UNK         0.0000 
     25 C25        -1.8828    3.0295    0.9787 C.3       1 UNK         0.0000 
     26 H26        -2.9411    3.1310    1.2360 H         1 UNK         0.0000 
     27 H27        -1.4454    4.0296    0.9319 H         1 UNK         0.0000 
     28 C28        -1.1449    2.1834    1.9876 C.ar      1 UNK         0.0000 
     29 C29        -1.7566    1.1033    2.6341 C.ar      1 UNK         0.0000 
     30 C30        -1.0015    0.1723    3.3508 C.ar      1 UNK         0.0000 
     31 H31        -1.4647   -0.6988    3.8031 H         1 UNK         0.0000 
     32 H32        -2.8326    0.9635    2.5561 H         1 UNK         0.0000 
     33 C33         0.2246    2.3919    2.1907 C.ar      1 UNK         0.0000 
     34 H34         0.7030    3.2582    1.7401 H         1 UNK         0.0000 
     35 C35         0.9898    1.4722    2.8986 C.ar      1 UNK         0.0000 
     36 H36         2.0648    1.5941    3.0005 H         1 UNK         0.0000 
     37 C37         0.3766    0.3357    3.4169 C.ar      1 UNK         0.0000 
     38 O38         1.1814   -0.6787    3.9368 O.3       1 UNK         0.0000 
     39 C39         1.8082   -1.3777    2.9158 C.ar      1 UNK         0.0000 
     40 C40         3.1995   -1.4480    2.8955 C.ar      1 UNK         0.0000 
     41 C41         3.8315   -2.0509    1.8083 C.ar      1 UNK         0.0000 
     42 H42         4.9157   -2.0729    1.7516 H         1 UNK         0.0000 
     43 H43         3.7694   -0.9914    3.6976 H         1 UNK         0.0000 
     44 C44         1.0441   -1.9670    1.9069 C.ar      1 UNK         0.0000 
     45 H45        -0.0389   -1.9299    1.9532 H         1 UNK         0.0000 
     46 C46         1.6817   -2.5462    0.8203 C.ar      1 UNK         0.0000 
     47 H47         1.0806   -2.9578    0.0172 H         1 UNK         0.0000 
     48 C48         3.0795   -2.5640    0.7460 C.ar      1 UNK         0.0000 
     49 C49         3.7712   -3.0240   -0.4949 C.2       1 UNK         0.0000 
     50 O50         4.8682   -3.5499   -0.4696 O.2       1 UNK         0.0000 
     51 C51         3.0870   -2.6973   -1.8316 C.3       1 UNK         0.0000 
     52 H52         3.7656   -2.9880   -2.6353 H         1 UNK         0.0000 
     53 H53         2.1518   -3.2539   -1.9369 H         1 UNK         0.0000 
     54 N54         2.7935   -1.2774   -1.8895 N.am      1 UNK         0.0000 
     55 H55         3.5821   -0.6136   -1.8449 H         1 UNK         0.0000 
     56 C56         1.5573   -0.7739   -1.7227 C.2       1 UNK         0.0000 
     57 O57         0.5263   -1.4464   -1.7597 O.2       1 UNK         0.0000 
     58 C58         1.5011    0.7368   -1.4136 C.3       1 UNK         0.0000 
     59 H59         1.7681    1.2952   -2.3210 H         1 UNK         0.0000 
     60 C60         2.4642    1.1405   -0.2646 C.3       1 UNK         0.0000 
     61 H61         2.6268    0.2793    0.3990 H         1 UNK         0.0000 
     62 H62         1.9615    1.9067    0.3216 H         1 UNK         0.0000 
     63 C63         3.7914    1.7007   -0.7159 C.ar      1 UNK         0.0000 
     64 C64         4.2193    2.9578   -0.2811 C.ar      1 UNK         0.0000 
     65 H65         3.5880    3.5447    0.3784 H         1 UNK         0.0000 
     66 C66         5.4533    3.4378   -0.7086 C.ar      1 UNK         0.0000 
     67 H67         5.8062    4.4111   -0.3828 H         1 UNK         0.0000 
     68 C68         6.2242    2.6532   -1.5629 C.ar      1 UNK         0.0000 
     69 H69         7.1902    2.9873   -1.9232 H         1 UNK         0.0000 
     70 C70         5.7195    1.4165   -1.9527 C.ar      1 UNK         0.0000 
     71 H71         6.2825    0.7709   -2.6211 H         1 UNK         0.0000 
     72 N72         4.5364    0.9503   -1.5400 N.ar      1 UNK         0.0000 
@<TRIPOS>BOND
     1    1    4 1    
     2    1    3 1    
     3    1    2 1    
     4    1    5 1    
     5    5    6 1    
     6    5   10 1    
     7    5   14 1    
     8    6    8 1    
     9    6    7 1    
    10    6    9 1    
    11   10   13 1    
    12   10   11 1    
    13   10   12 1    
    14   14   15 1    
    15   15   16 2    
    16   15   17 am   BACKBONE|DICT|INTERRES
    17   17   19 1    
    18   17   18 1    
    19   19   20 1    
    20   19   24 1    
    21   19   25 1    
    22   20   23 2    
    23   20   21 am   BACKBONE|DICT|INTERRES
    24   21   58 1    
    25   21   22 1    
    26   25   27 1    
    27   25   26 1    
    28   25   28 1    
    29   28   33 ar   
    30   28   29 ar   
    31   29   30 ar   
    32   29   32 1    
    33   30   37 ar   
    34   30   31 1    
    35   33   34 1    
    36   33   35 ar   
    37   35   36 1    
    38   35   37 ar   
    39   37   38 1    
    40   38   39 1    
    41   39   44 ar   
    42   39   40 ar   
    43   40   41 ar   
    44   40   43 1    
    45   41   42 1    
    46   41   48 ar   
    47   44   46 ar   
    48   44   45 1    
    49   46   47 1    
    50   46   48 ar   
    51   48   49 1    
    52   49   51 1    
    53   49   50 2    
    54   51   52 1    
    55   51   54 1    
    56   51   53 1    
    57   54   56 am   BACKBONE|DICT|INTERRES
    58   54   55 1    
    59   56   58 1    
    60   56   57 2    
    61   58   59 1    
    62   58   60 1    
    63   60   62 1    
    64   60   63 1    
    65   60   61 1    
    66   63   72 ar   
    67   63   64 ar   
    68   64   66 ar   
    69   64   65 1    
    70   66   68 ar   
    71   66   67 1    
    72   68   69 1    
    73   68   70 ar   
    74   70   71 1    
    75   70   72 ar   
@<TRIPOS>SUBSTRUCTURE
     1 UNK         1 GROUP             0       ****    0 ROOT    
@<TRIPOS>MOLECULE
Cpd5-1500-MEC
82   84    1
SMALL
USER_CHARGES


@<TRIPOS>ATOM
      1 C1         -6.7331    0.6457    0.5723 C.3       1 UNK         0.0000 
      2 H2         -6.6399    1.7183    0.3985 H         1 UNK         0.0000 
      3 H3         -7.7937    0.3784    0.5634 H         1 UNK         0.0000 
      4 H4         -6.3257    0.4030    1.5584 H         1 UNK         0.0000 
      5 C5         -6.0075   -0.1547   -0.5049 C.3       1 UNK         0.0000 
      6 C6         -6.4780    0.2017   -1.9121 C.3       1 UNK         0.0000 
      7 H7         -7.5207   -0.1088   -2.0266 H         1 UNK         0.0000 
      8 H8         -6.4065    1.2735   -2.0977 H         1 UNK         0.0000 
      9 H9         -5.8799   -0.3337   -2.6565 H         1 UNK         0.0000 
     10 C10        -6.1634   -1.6507   -0.2578 C.3       1 UNK         0.0000 
     11 H11        -5.6271   -2.2228   -1.0212 H         1 UNK         0.0000 
     12 H12        -5.7668   -1.9200    0.7252 H         1 UNK         0.0000 
     13 H13        -7.2214   -1.9224   -0.2979 H         1 UNK         0.0000 
     14 O14        -4.5634    0.0429   -0.3843 O.3       1 UNK         0.0000 
     15 C15        -4.0095    1.2618   -0.5483 C.2       1 UNK         0.0000 
     16 O16        -4.6178    2.2835   -0.8328 O.2       1 UNK         0.0000 
     17 N17        -2.6670    1.1809   -0.3711 N.am      1 UNK         0.0000 
     18 H18        -2.3131    0.3066    0.0297 H         1 UNK         0.0000 
     19 C19        -1.8675    2.3839   -0.3680 C.3       1 UNK         0.0000 
     20 C20        -0.4353    2.1662   -0.8631 C.2       1 UNK         0.0000 
     21 N21         0.0420    0.9128   -1.0088 N.am      1 UNK         0.0000 
     22 H22        -0.5153    0.0766   -0.8185 H         1 UNK         0.0000 
     23 O23         0.2632    3.1599   -1.0857 O.2       1 UNK         0.0000 
     24 H24        -2.3222    3.0784   -1.0797 H         1 UNK         0.0000 
     25 C25        -1.8520    3.0793    1.0234 C.3       1 UNK         0.0000 
     26 H26        -2.8958    3.2384    1.3112 H         1 UNK         0.0000 
     27 H27        -1.3728    4.0558    0.9144 H         1 UNK         0.0000 
     28 C28        -1.1166    2.2360    2.0315 C.ar      1 UNK         0.0000 
     29 C29        -1.7291    1.1383    2.6474 C.ar      1 UNK         0.0000 
     30 C30        -0.9776    0.2039    3.3607 C.ar      1 UNK         0.0000 
     31 H31        -1.4376   -0.6851    3.7811 H         1 UNK         0.0000 
     32 H32        -2.7978    0.9801    2.5258 H         1 UNK         0.0000 
     33 C33         0.2503    2.4464    2.2477 C.ar      1 UNK         0.0000 
     34 H34         0.7302    3.3195    1.8116 H         1 UNK         0.0000 
     35 C35         1.0143    1.5174    2.9468 C.ar      1 UNK         0.0000 
     36 H36         2.0891    1.6359    3.0525 H         1 UNK         0.0000 
     37 C37         0.3987    0.3736    3.4446 C.ar      1 UNK         0.0000 
     38 O38         1.2049   -0.6518    3.9419 O.3       1 UNK         0.0000 
     39 C39         1.8026   -1.3590    2.9124 C.ar      1 UNK         0.0000 
     40 C40         3.1736   -1.6036    2.9757 C.ar      1 UNK         0.0000 
     41 C41         3.8062   -2.2148    1.8933 C.ar      1 UNK         0.0000 
     42 H42         4.8815   -2.3655    1.9050 H         1 UNK         0.0000 
     43 H43         3.7361   -1.2695    3.8411 H         1 UNK         0.0000 
     44 C44         1.0457   -1.7854    1.8176 C.ar      1 UNK         0.0000 
     45 H45        -0.0235   -1.6087    1.7569 H         1 UNK         0.0000 
     46 C46         1.6899   -2.3770    0.7440 C.ar      1 UNK         0.0000 
     47 H47         1.0957   -2.6568   -0.1193 H         1 UNK         0.0000 
     48 C48         3.0759   -2.5711    0.7545 C.ar      1 UNK         0.0000 
     49 C49         3.7835   -3.0411   -0.4703 C.2       1 UNK         0.0000 
     50 O50         4.8293   -3.6627   -0.4226 O.2       1 UNK         0.0000 
     51 C51         3.1849   -2.6306   -1.8267 C.3       1 UNK         0.0000 
     52 H52         3.9197   -2.8712   -2.5977 H         1 UNK         0.0000 
     53 H53         2.2699   -3.1969   -2.0263 H         1 UNK         0.0000 
     54 N54         2.8640   -1.2161   -1.8247 N.am      1 UNK         0.0000 
     55 H55         3.6291   -0.5677   -1.5983 H         1 UNK         0.0000 
     56 C56         1.5998   -0.7498   -1.8285 C.2       1 UNK         0.0000 
     57 O57         0.6213   -1.4441   -2.1053 O.2       1 UNK         0.0000 
     58 C58         1.4268    0.7254   -1.4215 C.3       1 UNK         0.0000 
     59 H59         1.6032    1.3450   -2.3112 H         1 UNK         0.0000 
     60 C60         2.4021    1.1816   -0.3014 C.3       1 UNK         0.0000 
     61 H61         2.6288    0.3384    0.3630 H         1 UNK         0.0000 
     62 H62         1.8760    1.9315    0.2852 H         1 UNK         0.0000 
     63 C63         3.6794    1.8037   -0.8105 C.ar      1 UNK         0.0000 
     64 C64         3.8346    3.1925   -0.8327 C.ar      1 UNK         0.0000 
     65 H65         3.0267    3.8264   -0.4816 H         1 UNK         0.0000 
     66 C66         5.0248    3.7307   -1.3119 C.ar      1 UNK         0.0000 
     67 H67         5.1711    4.8058   -1.3359 H         1 UNK         0.0000 
     68 C68         6.0241    2.8688   -1.7583 C.ar      1 UNK         0.0000 
     69 H69         6.9678    3.2430   -2.1380 H         1 UNK         0.0000 
     70 C70         5.7811    1.4993   -1.7111 C.ar      1 UNK         0.0000 
     71 H71         6.5282    0.7899   -2.0560 H         1 UNK         0.0000 
     72 N72         4.6404    0.9770   -1.2475 N.ar      1 UNK         0.0000 
     73 C73        -1.3164   -3.7907   -0.9308 C.3       1 UNK         0.0000 
     74 H74        -0.4818   -3.4006   -1.5169 H         1 UNK         0.0000 
     75 H75        -1.8632   -4.5617   -1.4778 H         1 UNK         0.0000 
     76 H76        -0.9797   -4.1856    0.0290 H         1 UNK         0.0000 
     77 S77        -2.4529   -2.4362   -0.5748 S.3       1 UNK         0.0000 
     78 C78        -2.6323   -1.8242   -2.2637 C.3       1 UNK         0.0000 
     79 H79        -3.3021   -0.9648   -2.2222 H         1 UNK         0.0000 
     80 H80        -3.0728   -2.6155   -2.8743 H         1 UNK         0.0000 
     81 H81        -1.6396   -1.5422   -2.6223 H         1 UNK         0.0000 
     82 O82        -1.6024   -1.3777    0.1616 O.2       1 UNK         0.0000 
@<TRIPOS>BOND
     1    1    4 1    
     2    1    2 1    
     3    1    3 1    
     4    1    5 1    
     5    5   14 1    
     6    5   10 1    
     7    5    6 1    
     8    6    7 1    
     9    6    8 1    
    10    6    9 1    
    11   10   12 1    
    12   10   11 1    
    13   10   13 1    
    14   14   15 1    
    15   15   17 am   BACKBONE|DICT|INTERRES
    16   15   16 2    
    17   17   19 1    
    18   17   18 1    
    19   19   24 1    
    20   19   25 1    
    21   19   20 1    
    22   20   21 am   BACKBONE|DICT|INTERRES
    23   20   23 2    
    24   21   22 1    
    25   21   58 1    
    26   25   26 1    
    27   25   28 1    
    28   25   27 1    
    29   28   33 ar   
    30   28   29 ar   
    31   29   30 ar   
    32   29   32 1    
    33   30   37 ar   
    34   30   31 1    
    35   33   35 ar   
    36   33   34 1    
    37   35   36 1    
    38   35   37 ar   
    39   37   38 1    
    40   38   39 1    
    41   39   40 ar   
    42   39   44 ar   
    43   40   43 1    
    44   40   41 ar   
    45   41   42 1    
    46   41   48 ar   
    47   44   45 1    
    48   44   46 ar   
    49   46   48 ar   
    50   46   47 1    
    51   48   49 1    
    52   49   50 2    
    53   49   51 1    
    54   51   54 1    
    55   51   52 1    
    56   51   53 1    
    57   54   55 1    
    58   54   56 am   BACKBONE|DICT|INTERRES
    59   56   58 1    
    60   56   57 2    
    61   58   59 1    
    62   58   60 1    
    63   60   62 1    
    64   60   61 1    
    65   60   63 1    
    66   63   64 ar   
    67   63   72 ar   
    68   64   65 1    
    69   64   66 ar   
    70   66   67 1    
    71   66   68 ar   
    72   68   70 ar   
    73   68   69 1    
    74   70   72 ar   
    75   70   71 1    
    76   73   77 1    
    77   73   76 1    
    78   73   74 1    
    79   73   75 1    
    80   77   82 2    
    81   77   78 1    
    82   78   79 1    
    83   78   80 1    
    84   78   81 1    
@<TRIPOS>SUBSTRUCTURE
     1 UNK         1 GROUP             0       ****    0 ROOT    
@<TRIPOS>MOLECULE
Cpd5-2000-MRC
82   84    1
SMALL
USER_CHARGES


@<TRIPOS>ATOM
      1 C1         -6.3425   -0.7247    0.4932 C.3       1 UNK         0.0000 
      2 H2         -5.9504   -0.7034    1.5147 H         1 UNK         0.0000 
      3 H3         -6.4924    0.2967    0.1443 H         1 UNK         0.0000 
      4 H4         -7.3078   -1.2391    0.5081 H         1 UNK         0.0000 
      5 C5         -5.3884   -1.4945   -0.4154 C.3       1 UNK         0.0000 
      6 C6         -5.8020   -1.4434   -1.8828 C.3       1 UNK         0.0000 
      7 H7         -5.9061   -0.4155   -2.2312 H         1 UNK         0.0000 
      8 H8         -5.0622   -1.9617   -2.5011 H         1 UNK         0.0000 
      9 H9         -6.7624   -1.9535   -1.9995 H         1 UNK         0.0000 
     10 C10        -5.2705   -2.9403    0.0532 C.3       1 UNK         0.0000 
     11 H11        -6.2413   -3.4331   -0.0421 H         1 UNK         0.0000 
     12 H12        -4.5454   -3.4895   -0.5551 H         1 UNK         0.0000 
     13 H13        -4.9628   -2.9840    1.1020 H         1 UNK         0.0000 
     14 O14        -4.0199   -0.9827   -0.2657 O.3       1 UNK         0.0000 
     15 C15        -3.7302    0.2941   -0.5869 C.2       1 UNK         0.0000 
     16 O16        -4.5423    1.1238   -0.9637 O.2       1 UNK         0.0000 
     17 N17        -2.3960    0.5334   -0.4460 N.am      1 UNK         0.0000 
     18 H18        -1.8405   -0.1782    0.0327 H         1 UNK         0.0000 
     19 C19        -1.9385    1.9093   -0.4553 C.3       1 UNK         0.0000 
     20 C20        -0.5287    2.1011   -1.0165 C.2       1 UNK         0.0000 
     21 N21         0.2358    1.0145   -1.2581 N.am      1 UNK         0.0000 
     22 H22        -0.1143    0.0885   -1.0199 H         1 UNK         0.0000 
     23 O23        -0.1289    3.2498   -1.2152 O.2       1 UNK         0.0000 
     24 H24        -2.5976    2.4571   -1.1331 H         1 UNK         0.0000 
     25 C25        -2.0490    2.5700    0.9453 C.3       1 UNK         0.0000 
     26 H26        -3.1016    2.5164    1.2411 H         1 UNK         0.0000 
     27 H27        -1.7764    3.6240    0.8474 H         1 UNK         0.0000 
     28 C28        -1.1676    1.8827    1.9569 C.ar      1 UNK         0.0000 
     29 C29        -1.5814    0.7069    2.5953 C.ar      1 UNK         0.0000 
     30 C30        -0.6985   -0.0313    3.3812 C.ar      1 UNK         0.0000 
     31 H31        -1.0007   -0.9722    3.8309 H         1 UNK         0.0000 
     32 H32        -2.5960    0.3430    2.4502 H         1 UNK         0.0000 
     33 C33         0.1259    2.3553    2.2058 C.ar      1 UNK         0.0000 
     34 H34         0.4518    3.2854    1.7465 H         1 UNK         0.0000 
     35 C35         1.0148    1.6352    3.0013 C.ar      1 UNK         0.0000 
     36 H36         2.0258    1.9922    3.1682 H         1 UNK         0.0000 
     37 C37         0.6076    0.4188    3.5408 C.ar      1 UNK         0.0000 
     38 O38         1.5447   -0.4132    4.1701 O.3       1 UNK         0.0000 
     39 C39         2.1037   -1.2475    3.2078 C.ar      1 UNK         0.0000 
     40 C40         3.0547   -0.7281    2.3305 C.ar      1 UNK         0.0000 
     41 C41         3.3746   -1.4376    1.1821 C.ar      1 UNK         0.0000 
     42 H42         4.0252   -0.9720    0.4451 H         1 UNK         0.0000 
     43 H43         3.4663    0.2613    2.5003 H         1 UNK         0.0000 
     44 C44         1.6232   -2.5475    3.0621 C.ar      1 UNK         0.0000 
     45 H45         0.9217   -2.9445    3.7889 H         1 UNK         0.0000 
     46 C46         1.9837   -3.2744    1.9293 C.ar      1 UNK         0.0000 
     47 H47         1.5691   -4.2640    1.7576 H         1 UNK         0.0000 
     48 C48         2.7939   -2.6895    0.9494 C.ar      1 UNK         0.0000 
     49 C49         2.8836   -3.3229   -0.3955 C.2       1 UNK         0.0000 
     50 O50         2.8818   -4.5294   -0.5552 O.2       1 UNK         0.0000 
     51 C51         2.9103   -2.3960   -1.6155 C.3       1 UNK         0.0000 
     52 H52         3.9486   -2.0887   -1.8024 H         1 UNK         0.0000 
     53 H53         2.5782   -2.9834   -2.4765 H         1 UNK         0.0000 
     54 N54         2.1022   -1.2028   -1.4220 N.am      1 UNK         0.0000 
     55 H55         1.4267   -1.1881   -0.6563 H         1 UNK         0.0000 
     56 C56         2.2876   -0.1012   -2.1756 C.2       1 UNK         0.0000 
     57 O57         3.0437   -0.0748   -3.1451 O.2       1 UNK         0.0000 
     58 C58         1.6194    1.1885   -1.6876 C.3       1 UNK         0.0000 
     59 H59         1.6354    1.8832   -2.5316 H         1 UNK         0.0000 
     60 C60         2.4755    1.7731   -0.5334 C.3       1 UNK         0.0000 
     61 H61         2.4287    1.0836    0.3152 H         1 UNK         0.0000 
     62 H62         2.0156    2.7201   -0.2412 H         1 UNK         0.0000 
     63 C63         3.9095    1.9884   -0.9394 C.ar      1 UNK         0.0000 
     64 C64         4.2898    3.1468   -1.6249 C.ar      1 UNK         0.0000 
     65 H65         3.5533    3.9178   -1.8308 H         1 UNK         0.0000 
     66 C66         5.6120    3.2886   -2.0310 C.ar      1 UNK         0.0000 
     67 H67         5.9326    4.1774   -2.5652 H         1 UNK         0.0000 
     68 C68         6.5159    2.2698   -1.7368 C.ar      1 UNK         0.0000 
     69 H69         7.5575    2.3339   -2.0307 H         1 UNK         0.0000 
     70 C70         6.0482    1.1562   -1.0440 C.ar      1 UNK         0.0000 
     71 H71         6.7240    0.3429   -0.7905 H         1 UNK         0.0000 
     72 N72         4.7778    1.0084   -0.6523 N.ar      1 UNK         0.0000 
     73 C73        -1.6801   -2.9922   -1.5772 C.3       1 UNK         0.0000 
     74 H74        -2.0307   -4.0160   -1.7247 H         1 UNK         0.0000 
     75 H75        -1.0545   -2.6874   -2.4177 H         1 UNK         0.0000 
     76 H76        -2.5130   -2.3003   -1.4350 H         1 UNK         0.0000 
     77 S77        -0.6298   -2.9489   -0.1141 S.3       1 UNK         0.0000 
     78 C78        -1.8553   -3.3155    1.1499 C.3       1 UNK         0.0000 
     79 H79        -2.6249   -2.5413    1.1018 H         1 UNK         0.0000 
     80 H80        -1.3344   -3.2891    2.1082 H         1 UNK         0.0000 
     81 H81        -2.2720   -4.3090    0.9729 H         1 UNK         0.0000 
     82 O82        -0.3149   -1.4498    0.1130 O.2       1 UNK         0.0000 
@<TRIPOS>BOND
     1    1    2 1    
     2    1    3 1    
     3    1    4 1    
     4    1    5 1    
     5    5   10 1    
     6    5   14 1    
     7    5    6 1    
     8    6    7 1    
     9    6    8 1    
    10    6    9 1    
    11   10   13 1    
    12   10   11 1    
    13   10   12 1    
    14   14   15 1    
    15   15   17 am   BACKBONE|DICT|INTERRES
    16   15   16 2    
    17   17   18 1    
    18   17   19 1    
    19   19   24 1    
    20   19   25 1    
    21   19   20 1    
    22   20   23 2    
    23   20   21 am   BACKBONE|DICT|INTERRES
    24   21   22 1    
    25   21   58 1    
    26   25   27 1    
    27   25   26 1    
    28   25   28 1    
    29   28   29 ar   
    30   28   33 ar   
    31   29   30 ar   
    32   29   32 1    
    33   30   31 1    
    34   30   37 ar   
    35   33   35 ar   
    36   33   34 1    
    37   35   37 ar   
    38   35   36 1    
    39   37   38 1    
    40   38   39 1    
    41   39   40 ar   
    42   39   44 ar   
    43   40   43 1    
    44   40   41 ar   
    45   41   42 1    
    46   41   48 ar   
    47   44   45 1    
    48   44   46 ar   
    49   46   47 1    
    50   46   48 ar   
    51   48   49 1    
    52   49   50 2    
    53   49   51 1    
    54   51   54 1    
    55   51   52 1    
    56   51   53 1    
    57   54   55 1    
    58   54   56 am   BACKBONE|DICT|INTERRES
    59   56   58 1    
    60   56   57 2    
    61   58   59 1    
    62   58   60 1    
    63   60   62 1    
    64   60   61 1    
    65   60   63 1    
    66   63   64 ar   
    67   63   72 ar   
    68   64   65 1    
    69   64   66 ar   
    70   66   67 1    
    71   66   68 ar   
    72   68   70 ar   
    73   68   69 1    
    74   70   71 1    
    75   70   72 ar   
    76   73   76 1    
    77   73   77 1    
    78   73   74 1    
    79   73   75 1    
    80   77   82 2    
    81   77   78 1    
    82   78   79 1    
    83   78   80 1    
    84   78   81 1    
@<TRIPOS>SUBSTRUCTURE
     1 UNK         1 GROUP             0       ****    0 ROOT    
@<TRIPOS>MOLECULE
Cpd5-2500
82   84    1
SMALL
USER_CHARGES


@<TRIPOS>ATOM
      1 C1         -5.1557    0.1504   -4.2810 C.3       1 UNK         0.0000 
      2 H2         -5.6191   -0.4166   -5.0977 H         1 UNK         0.0000 
      3 H3         -5.9324    0.6123   -3.6597 H         1 UNK         0.0000 
      4 H4         -4.5539    0.9975   -4.6323 H         1 UNK         0.0000 
      5 C5         -4.1010   -0.6825   -3.5282 C.3       1 UNK         0.0000 
      6 C6         -2.7868   -0.9967   -4.2680 C.3       1 UNK         0.0000 
      7 H7         -2.4501   -0.1456   -4.8735 H         1 UNK         0.0000 
      8 H8         -1.9198   -1.2149   -3.6328 H         1 UNK         0.0000 
      9 H9         -2.8893   -1.9771   -4.7478 H         1 UNK         0.0000 
     10 C10        -4.7857   -2.0092   -3.1047 C.3       1 UNK         0.0000 
     11 H11        -5.7963   -1.7860   -2.7417 H         1 UNK         0.0000 
     12 H12        -4.9305   -2.6176   -4.0064 H         1 UNK         0.0000 
     13 H13        -4.2636   -2.4888   -2.2687 H         1 UNK         0.0000 
     14 O14        -3.7322   -0.0859   -2.2312 O.3       1 UNK         0.0000 
     15 C15        -3.1698    1.1223   -2.1993 C.2       1 UNK         0.0000 
     16 O16        -2.8876    1.8461   -3.1777 O.2       1 UNK         0.0000 
     17 N17        -2.8259    1.4292   -0.9091 N.am      1 UNK         0.0000 
     18 H18        -3.0900    0.7540   -0.2022 H         1 UNK         0.0000 
     19 C19        -1.9854    2.6448   -0.5386 C.3       1 UNK         0.0000 
     20 C20        -0.5270    2.3557   -0.9903 C.2       1 UNK         0.0000 
     21 N21         0.0405    1.0855   -0.9379 N.am      1 UNK         0.0000 
     22 H22        -0.5643    0.3902   -0.5168 H         1 UNK         0.0000 
     23 O23         0.1457    3.3028   -1.2975 O.2       1 UNK         0.0000 
     24 H24        -2.2706    3.5183   -1.1361 H         1 UNK         0.0000 
     25 C25        -1.9183    3.0806    0.9760 C.3       1 UNK         0.0000 
     26 H26        -2.9655    3.1972    1.2830 H         1 UNK         0.0000 
     27 H27        -1.3826    4.0018    1.2367 H         1 UNK         0.0000 
     28 C28        -1.1323    2.0709    1.8750 C.ar      1 UNK         0.0000 
     29 C29        -1.6649    0.8719    2.2484 C.ar      1 UNK         0.0000 
     30 C30        -0.8744   -0.0101    3.0393 C.ar      1 UNK         0.0000 
     31 H31        -1.2705   -0.9984    3.2503 H         1 UNK         0.0000 
     32 H32        -2.6639    0.6106    1.9109 H         1 UNK         0.0000 
     33 C33         0.1808    2.4987    2.3112 C.ar      1 UNK         0.0000 
     34 H34         0.6419    3.4386    2.0227 H         1 UNK         0.0000 
     35 C35         0.9246    1.6013    3.0708 C.ar      1 UNK         0.0000 
     36 H36         1.9033    1.9139    3.4222 H         1 UNK         0.0000 
     37 C37         0.4328    0.3361    3.4485 C.ar      1 UNK         0.0000 
     38 O38         1.3034   -0.6540    3.8438 O.3       1 UNK         0.0000 
     39 C39         1.8431   -1.3378    2.8612 C.ar      1 UNK         0.0000 
     40 C40         3.1267   -1.0071    2.4683 C.ar      1 UNK         0.0000 
     41 C41         3.7344   -1.6114    1.4122 C.ar      1 UNK         0.0000 
     42 H42         4.6918   -1.2035    1.0997 H         1 UNK         0.0000 
     43 H43         3.4613   -0.0578    2.8758 H         1 UNK         0.0000 
     44 C44         1.2713   -2.4918    2.3558 C.ar      1 UNK         0.0000 
     45 H45         0.2831   -2.8463    2.6353 H         1 UNK         0.0000 
     46 C46         1.8918   -3.1128    1.3161 C.ar      1 UNK         0.0000 
     47 H47         1.3151   -3.9310    0.8947 H         1 UNK         0.0000 
     48 C48         3.0905   -2.6614    0.7396 C.ar      1 UNK         0.0000 
     49 C49         3.4885   -3.1563   -0.6174 C.2       1 UNK         0.0000 
     50 O50         3.2944   -4.3371   -0.9122 O.2       1 UNK         0.0000 
     51 C51         4.0031   -2.1280   -1.6686 C.3       1 UNK         0.0000 
     52 H52         5.0709   -1.9597   -1.4825 H         1 UNK         0.0000 
     53 H53         3.9751   -2.7374   -2.5798 H         1 UNK         0.0000 
     54 N54         3.1177   -0.9685   -1.8432 N.am      1 UNK         0.0000 
     55 H55         3.6651   -0.1450   -2.0596 H         1 UNK         0.0000 
     56 C56         1.8216   -0.6650   -1.3959 C.2       1 UNK         0.0000 
     57 O57         1.0274   -1.4915   -0.9601 O.2       1 UNK         0.0000 
     58 C58         1.4628    0.8204   -1.2881 C.3       1 UNK         0.0000 
     59 H59         1.6529    1.2918   -2.2599 H         1 UNK         0.0000 
     60 C60         2.4355    1.4349   -0.2128 C.3       1 UNK         0.0000 
     61 H61         2.4322    0.8191    0.6938 H         1 UNK         0.0000 
     62 H62         2.0204    2.3640    0.1967 H         1 UNK         0.0000 
     63 C63         3.8970    1.6963   -0.6829 C.ar      1 UNK         0.0000 
     64 C64         4.9059    1.6560    0.3140 C.ar      1 UNK         0.0000 
     65 H65         4.6593    1.5212    1.3628 H         1 UNK         0.0000 
     66 C66         6.2252    1.8430   -0.0552 C.ar      1 UNK         0.0000 
     67 H67         6.9666    1.9266    0.7342 H         1 UNK         0.0000 
     68 C68         6.4838    1.9682   -1.4396 C.ar      1 UNK         0.0000 
     69 H69         7.5175    2.1348   -1.7304 H         1 UNK         0.0000 
     70 C70         5.4780    1.8851   -2.3884 C.ar      1 UNK         0.0000 
     71 H71         5.6623    1.9135   -3.4613 H         1 UNK         0.0000 
     72 N72         4.1945    1.7479   -1.9599 N.ar      1 UNK         0.0000 
     73 C73        -5.8259   13.9430  -24.5336 C.3       1 UNK         0.0000 
     74 H74        -6.2794   14.6580  -23.8359 H         1 UNK         0.0000 
     75 H75        -6.6157   13.7319  -25.2650 H         1 UNK         0.0000 
     76 H76        -4.9755   14.3471  -25.0967 H         1 UNK         0.0000 
     77 S77        -5.3264   12.4763  -23.6907 S.3       1 UNK         0.0000 
     78 C78        -3.8863   13.1500  -22.8131 C.3       1 UNK         0.0000 
     79 H79        -4.3291   13.6516  -21.9440 H         1 UNK         0.0000 
     80 H80        -3.4500   13.9225  -23.4580 H         1 UNK         0.0000 
     81 H81        -3.1245   12.3858  -22.6154 H         1 UNK         0.0000 
     82 O82        -4.7435   11.4927  -24.6863 O.2       1 UNK         0.0000 
@<TRIPOS>BOND
     1    1    5 1    
     2    1    2 1    
     3    1    3 1    
     4    1    4 1    
     5    5    6 1    
     6    5   10 1    
     7    5   14 1    
     8    6    9 1    
     9    6    7 1    
    10    6    8 1    
    11   10   13 1    
    12   10   12 1    
    13   10   11 1    
    14   14   15 1    
    15   15   16 2    
    16   15   17 am   BACKBONE|DICT|INTERRES
    17   17   18 1    
    18   17   19 1    
    19   19   24 1    
    20   19   20 1    
    21   19   25 1    
    22   20   21 am   BACKBONE|DICT|INTERRES
    23   20   23 2    
    24   21   22 1    
    25   21   58 1    
    26   25   28 1    
    27   25   26 1    
    28   25   27 1    
    29   28   29 ar   
    30   28   33 ar   
    31   29   32 1    
    32   29   30 ar   
    33   30   31 1    
    34   30   37 ar   
    35   33   35 ar   
    36   33   34 1    
    37   35   37 ar   
    38   35   36 1    
    39   37   38 1    
    40   38   39 1    
    41   39   44 ar   
    42   39   40 ar   
    43   40   41 ar   
    44   40   43 1    
    45   41   48 ar   
    46   41   42 1    
    47   44   45 1    
    48   44   46 ar   
    49   46   47 1    
    50   46   48 ar   
    51   48   49 1    
    52   49   50 2    
    53   49   51 1    
    54   51   53 1    
    55   51   52 1    
    56   51   54 1    
    57   54   55 1    
    58   54   56 am   BACKBONE|DICT|INTERRES
    59   56   57 2    
    60   56   58 1    
    61   58   59 1    
    62   58   60 1    
    63   60   61 1    
    64   60   63 1    
    65   60   62 1    
    66   63   72 ar   
    67   63   64 ar   
    68   64   66 ar   
    69   64   65 1    
    70   66   68 ar   
    71   66   67 1    
    72   68   69 1    
    73   68   70 ar   
    74   70   71 1    
    75   70   72 ar   
    76   73   75 1    
    77   73   77 1    
    78   73   74 1    
    79   73   76 1    
    80   77   82 2    
    81   77   78 1    
    82   78   81 1    
    83   78   79 1    
    84   78   80 1    
@<TRIPOS>SUBSTRUCTURE
     1 UNK         1 GROUP             0       ****    0 ROOT    
@<TRIPOS>MOLECULE
Cpd5-3000
82   84    1
SMALL
USER_CHARGES


@<TRIPOS>ATOM
      1 C1         -6.3431   -0.7243    0.4894 C.3       1 UNK         0.0000 
      2 H2         -6.4928    0.2970    0.1402 H         1 UNK         0.0000 
      3 H3         -7.3083   -1.2387    0.5042 H         1 UNK         0.0000 
      4 H4         -5.9512   -0.7027    1.5111 H         1 UNK         0.0000 
      5 C5         -5.3887   -1.4944   -0.4186 C.3       1 UNK         0.0000 
      6 C6         -5.8015   -1.4433   -1.8862 C.3       1 UNK         0.0000 
      7 H7         -5.0616   -1.9617   -2.5042 H         1 UNK         0.0000 
      8 H8         -6.7621   -1.9533   -2.0034 H         1 UNK         0.0000 
      9 H9         -5.9054   -0.4155   -2.2348 H         1 UNK         0.0000 
     10 C10        -5.2715   -2.9403    0.0501 C.3       1 UNK         0.0000 
     11 H11        -4.5462   -3.4896   -0.5578 H         1 UNK         0.0000 
     12 H12        -4.9644   -2.9840    1.0990 H         1 UNK         0.0000 
     13 H13        -6.2424   -3.4328   -0.0456 H         1 UNK         0.0000 
     14 O14        -4.0201   -0.9830   -0.2685 O.3       1 UNK         0.0000 
     15 C15        -3.7302    0.2938   -0.5889 C.2       1 UNK         0.0000 
     16 O16        -4.5418    1.1236   -0.9662 O.2       1 UNK         0.0000 
     17 N17        -2.3960    0.5331   -0.4468 N.am      1 UNK         0.0000 
     18 H18        -1.8407   -0.1786    0.0321 H         1 UNK         0.0000 
     19 C19        -1.9384    1.9090   -0.4555 C.3       1 UNK         0.0000 
     20 C20        -0.5285    2.1010   -1.0164 C.2       1 UNK         0.0000 
     21 N21         0.2361    1.0144   -1.2578 N.am      1 UNK         0.0000 
     22 H22        -0.1143    0.0883   -1.0204 H         1 UNK         0.0000 
     23 O23        -0.1287    3.2498   -1.2148 O.2       1 UNK         0.0000 
     24 H24        -2.5974    2.4569   -1.1334 H         1 UNK         0.0000 
     25 C25        -2.0492    2.5694    0.9452 C.3       1 UNK         0.0000 
     26 H26        -3.1019    2.5154    1.2408 H         1 UNK         0.0000 
     27 H27        -1.7771    3.6236    0.8474 H         1 UNK         0.0000 
     28 C28        -1.1678    1.8824    1.9567 C.ar      1 UNK         0.0000 
     29 C29        -1.5813    0.7064    2.5951 C.ar      1 UNK         0.0000 
     30 C30        -0.6982   -0.0316    3.3810 C.ar      1 UNK         0.0000 
     31 H31        -1.0001   -0.9725    3.8307 H         1 UNK         0.0000 
     32 H32        -2.5957    0.3421    2.4497 H         1 UNK         0.0000 
     33 C33         0.1255    2.3554    2.2056 C.ar      1 UNK         0.0000 
     34 H34         0.4513    3.2856    1.7465 H         1 UNK         0.0000 
     35 C35         1.0146    1.6354    3.0013 C.ar      1 UNK         0.0000 
     36 H36         2.0256    1.9927    3.1682 H         1 UNK         0.0000 
     37 C37         0.6078    0.4190    3.5407 C.ar      1 UNK         0.0000 
     38 O38         1.5452   -0.4128    4.1700 O.3       1 UNK         0.0000 
     39 C39         2.1039   -1.2473    3.2076 C.ar      1 UNK         0.0000 
     40 C40         3.0548   -0.7280    2.3303 C.ar      1 UNK         0.0000 
     41 C41         3.3747   -1.4377    1.1819 C.ar      1 UNK         0.0000 
     42 H42         4.0252   -0.9721    0.4448 H         1 UNK         0.0000 
     43 H43         3.4666    0.2614    2.4998 H         1 UNK         0.0000 
     44 C44         1.6232   -2.5471    3.0622 C.ar      1 UNK         0.0000 
     45 H45         0.9217   -2.9441    3.7890 H         1 UNK         0.0000 
     46 C46         1.9834   -3.2743    1.9293 C.ar      1 UNK         0.0000 
     47 H47         1.5683   -4.2636    1.7576 H         1 UNK         0.0000 
     48 C48         2.7936   -2.6896    0.9494 C.ar      1 UNK         0.0000 
     49 C49         2.8831   -3.3229   -0.3956 C.2       1 UNK         0.0000 
     50 O50         2.8805   -4.5294   -0.5553 O.2       1 UNK         0.0000 
     51 C51         2.9099   -2.3960   -1.6155 C.3       1 UNK         0.0000 
     52 H52         3.9484   -2.0888   -1.8022 H         1 UNK         0.0000 
     53 H53         2.5782   -2.9834   -2.4766 H         1 UNK         0.0000 
     54 N54         2.1020   -1.2029   -1.4221 N.am      1 UNK         0.0000 
     55 H55         1.4263   -1.1881   -0.6566 H         1 UNK         0.0000 
     56 C56         2.2881   -0.1009   -2.1752 C.2       1 UNK         0.0000 
     57 O57         3.0448   -0.0743   -3.1444 O.2       1 UNK         0.0000 
     58 C58         1.6198    1.1886   -1.6873 C.3       1 UNK         0.0000 
     59 H59         1.6357    1.8833   -2.5313 H         1 UNK         0.0000 
     60 C60         2.4756    1.7733   -0.5329 C.3       1 UNK         0.0000 
     61 H61         2.4288    1.0836    0.3156 H         1 UNK         0.0000 
     62 H62         2.0154    2.7201   -0.2408 H         1 UNK         0.0000 
     63 C63         3.9096    1.9887   -0.9387 C.ar      1 UNK         0.0000 
     64 C64         4.2897    3.1469   -1.6247 C.ar      1 UNK         0.0000 
     65 H65         3.5531    3.9176   -1.8311 H         1 UNK         0.0000 
     66 C66         5.6120    3.2890   -2.0305 C.ar      1 UNK         0.0000 
     67 H67         5.9325    4.1776   -2.5650 H         1 UNK         0.0000 
     68 C68         6.5162    2.2707   -1.7355 C.ar      1 UNK         0.0000 
     69 H69         7.5579    2.3348   -2.0291 H         1 UNK         0.0000 
     70 C70         6.0486    1.1573   -1.0423 C.ar      1 UNK         0.0000 
     71 H71         6.7247    0.3443   -0.7881 H         1 UNK         0.0000 
     72 N72         4.7782    1.0093   -0.6509 N.ar      1 UNK         0.0000 
     73 C73        -1.6791   -2.9932   -1.5782 C.3       1 UNK         0.0000 
     74 H74        -2.5118   -2.3010   -1.4371 H         1 UNK         0.0000 
     75 H75        -2.0298   -4.0169   -1.7254 H         1 UNK         0.0000 
     76 H76        -1.0525   -2.6891   -2.4182 H         1 UNK         0.0000 
     77 S77        -0.6304   -2.9496   -0.1140 S.3       1 UNK         0.0000 
     78 C78        -1.8574   -3.3155    1.1487 C.3       1 UNK         0.0000 
     79 H79        -2.2740   -4.3090    0.9715 H         1 UNK         0.0000 
     80 H80        -2.6269   -2.5412    1.0994 H         1 UNK         0.0000 
     81 H81        -1.3378   -3.2888    2.1077 H         1 UNK         0.0000 
     82 O82        -0.3151   -1.4507    0.1129 O.2       1 UNK         0.0000 
@<TRIPOS>BOND
     1    1    4 1    
     2    1    2 1    
     3    1    3 1    
     4    1    5 1    
     5    5   10 1    
     6    5   14 1    
     7    5    6 1    
     8    6    7 1    
     9    6    8 1    
    10    6    9 1    
    11   10   12 1    
    12   10   11 1    
    13   10   13 1    
    14   14   15 1    
    15   15   17 am   BACKBONE|DICT|INTERRES
    16   15   16 2    
    17   17   18 1    
    18   17   19 1    
    19   19   24 1    
    20   19   25 1    
    21   19   20 1    
    22   20   23 2    
    23   20   21 am   BACKBONE|DICT|INTERRES
    24   21   22 1    
    25   21   58 1    
    26   25   27 1    
    27   25   26 1    
    28   25   28 1    
    29   28   29 ar   
    30   28   33 ar   
    31   29   30 ar   
    32   29   32 1    
    33   30   31 1    
    34   30   37 ar   
    35   33   35 ar   
    36   33   34 1    
    37   35   37 ar   
    38   35   36 1    
    39   37   38 1    
    40   38   39 1    
    41   39   40 ar   
    42   39   44 ar   
    43   40   43 1    
    44   40   41 ar   
    45   41   42 1    
    46   41   48 ar   
    47   44   45 1    
    48   44   46 ar   
    49   46   47 1    
    50   46   48 ar   
    51   48   49 1    
    52   49   50 2    
    53   49   51 1    
    54   51   54 1    
    55   51   52 1    
    56   51   53 1    
    57   54   55 1    
    58   54   56 am   BACKBONE|DICT|INTERRES
    59   56   58 1    
    60   56   57 2    
    61   58   59 1    
    62   58   60 1    
    63   60   62 1    
    64   60   61 1    
    65   60   63 1    
    66   63   64 ar   
    67   63   72 ar   
    68   64   65 1    
    69   64   66 ar   
    70   66   67 1    
    71   66   68 ar   
    72   68   70 ar   
    73   68   69 1    
    74   70   71 1    
    75   70   72 ar   
    76   73   74 1    
    77   73   77 1    
    78   73   75 1    
    79   73   76 1    
    80   77   82 2    
    81   77   78 1    
    82   78   80 1    
    83   78   81 1    
    84   78   79 1    
@<TRIPOS>SUBSTRUCTURE
     1 UNK         1 GROUP             0       ****    0 ROOT    
@<TRIPOS>MOLECULE
Cpd5-3500
82   84    1
SMALL
USER_CHARGES


@<TRIPOS>ATOM
      1 C1         -6.4483    0.0513    0.8176 C.3       1 UNK         0.0000 
      2 H2         -6.3137    1.1281    0.9211 H         1 UNK         0.0000 
      3 H3         -7.5126   -0.1821    0.9138 H         1 UNK         0.0000 
      4 H4         -5.9155   -0.4593    1.6274 H         1 UNK         0.0000 
      5 C5         -5.9449   -0.4423   -0.5365 C.3       1 UNK         0.0000 
      6 C6         -6.6139    0.2750   -1.7068 C.3       1 UNK         0.0000 
      7 H7         -7.6693   -0.0117   -1.7419 H         1 UNK         0.0000 
      8 H8         -6.5418    1.3572   -1.6072 H         1 UNK         0.0000 
      9 H9         -6.1465   -0.0306   -2.6480 H         1 UNK         0.0000 
     10 C10        -6.1643   -1.9466   -0.6616 C.3       1 UNK         0.0000 
     11 H11        -5.8228   -2.3110   -1.6349 H         1 UNK         0.0000 
     12 H12        -5.6353   -2.4879    0.1296 H         1 UNK         0.0000 
     13 H13        -7.2304   -2.1689   -0.5700 H         1 UNK         0.0000 
     14 O14        -4.4873   -0.3010   -0.6062 O.3       1 UNK         0.0000 
     15 C15        -3.9435    0.9442   -0.5342 C.2       1 UNK         0.0000 
     16 O16        -4.5902    1.9746   -0.4683 O.2       1 UNK         0.0000 
     17 N17        -2.5895    0.8961   -0.5329 N.am      1 UNK         0.0000 
     18 H18        -2.1191   -0.0070   -0.6057 H         1 UNK         0.0000 
     19 C19        -1.8710    2.1603   -0.4936 C.3       1 UNK         0.0000 
     20 C20        -0.4267    2.0842   -0.9930 C.2       1 UNK         0.0000 
     21 N21         0.2827    0.9254   -0.8503 N.am      1 UNK         0.0000 
     22 H22        -0.0437    0.2320   -0.1796 H         1 UNK         0.0000 
     23 O23         0.0663    3.0880   -1.4919 O.2       1 UNK         0.0000 
     24 H24        -2.3652    2.8472   -1.1858 H         1 UNK         0.0000 
     25 C25        -1.9235    2.8306    0.9096 C.3       1 UNK         0.0000 
     26 H26        -2.9809    2.9198    1.1736 H         1 UNK         0.0000 
     27 H27        -1.5150    3.8402    0.8047 H         1 UNK         0.0000 
     28 C28        -1.1494    2.0548    1.9400 C.ar      1 UNK         0.0000 
     29 C29        -1.6696    0.8870    2.5125 C.ar      1 UNK         0.0000 
     30 C30        -0.8652    0.0526    3.2852 C.ar      1 UNK         0.0000 
     31 H31        -1.2507   -0.8621    3.7246 H         1 UNK         0.0000 
     32 H32        -2.7071    0.6188    2.3263 H         1 UNK         0.0000 
     33 C33         0.1598    2.4224    2.2622 C.ar      1 UNK         0.0000 
     34 H34         0.5620    3.3510    1.8648 H         1 UNK         0.0000 
     35 C35         0.9784    1.5900    3.0221 C.ar      1 UNK         0.0000 
     36 H36         2.0170    1.8441    3.2112 H         1 UNK         0.0000 
     37 C37         0.4761    0.3757    3.4737 C.ar      1 UNK         0.0000 
     38 O38         1.3398   -0.5640    4.0334 O.3       1 UNK         0.0000 
     39 C39         1.8991   -1.3226    3.0050 C.ar      1 UNK         0.0000 
     40 C40         3.1210   -0.9497    2.4569 C.ar      1 UNK         0.0000 
     41 C41         3.5779   -1.5860    1.3017 C.ar      1 UNK         0.0000 
     42 H42         4.4828   -1.2351    0.8147 H         1 UNK         0.0000 
     43 H43         3.6770   -0.1189    2.8802 H         1 UNK         0.0000 
     44 C44         1.1692   -2.3849    2.4717 C.ar      1 UNK         0.0000 
     45 H45         0.2416   -2.6874    2.9480 H         1 UNK         0.0000 
     46 C46         1.6151   -2.9965    1.3071 C.ar      1 UNK         0.0000 
     47 H47         1.0232   -3.7891    0.8556 H         1 UNK         0.0000 
     48 C48         2.8048   -2.5789    0.7031 C.ar      1 UNK         0.0000 
     49 C49         3.1652   -3.0970   -0.6597 C.2       1 UNK         0.0000 
     50 O50         4.1711   -3.7235   -0.8940 O.2       1 UNK         0.0000 
     51 C51         2.1415   -2.7858   -1.7665 C.3       1 UNK         0.0000 
     52 H52         2.6748   -2.8487   -2.7186 H         1 UNK         0.0000 
     53 H53         1.3612   -3.5551   -1.7482 H         1 UNK         0.0000 
     54 N54         1.5060   -1.4949   -1.5976 N.am      1 UNK         0.0000 
     55 H55         0.5279   -1.4575   -1.3197 H         1 UNK         0.0000 
     56 C56         2.3093   -0.4087   -1.5212 C.2       1 UNK         0.0000 
     57 O57         3.5184   -0.4981   -1.7050 O.2       1 UNK         0.0000 
     58 C58         1.7027    0.9554   -1.1949 C.3       1 UNK         0.0000 
     59 H59         1.7805    1.5523   -2.1092 H         1 UNK         0.0000 
     60 C60         2.5125    1.6443   -0.0769 C.3       1 UNK         0.0000 
     61 H61         2.4767    1.0223    0.8206 H         1 UNK         0.0000 
     62 H62         1.9925    2.5845    0.1340 H         1 UNK         0.0000 
     63 C63         3.9539    1.9480   -0.3916 C.ar      1 UNK         0.0000 
     64 C64         4.2901    2.7777   -1.4679 C.ar      1 UNK         0.0000 
     65 H65         3.5053    3.1988   -2.0904 H         1 UNK         0.0000 
     66 C66         5.6275    3.0483   -1.7172 C.ar      1 UNK         0.0000 
     67 H67         5.9166    3.6833   -2.5493 H         1 UNK         0.0000 
     68 C68         6.5916    2.4930   -0.8772 C.ar      1 UNK         0.0000 
     69 H69         7.6500    2.6719   -1.0316 H         1 UNK         0.0000 
     70 C70         6.1581    1.7037    0.1824 C.ar      1 UNK         0.0000 
     71 H71         6.8777    1.2651    0.8704 H         1 UNK         0.0000 
     72 N72         4.8729    1.4327    0.4319 N.ar      1 UNK         0.0000 
     73 C73        -2.9639   -3.3334   -1.2562 C.3       1 UNK         0.0000 
     74 H74        -2.4182   -3.6304   -2.1526 H         1 UNK         0.0000 
     75 H75        -3.5425   -2.4249   -1.4380 H         1 UNK         0.0000 
     76 H76        -3.5977   -4.1546   -0.9135 H         1 UNK         0.0000 
     77 S77        -1.7352   -2.9396    0.0036 S.3       1 UNK         0.0000 
     78 C78        -2.8557   -2.4837    1.3413 C.3       1 UNK         0.0000 
     79 H79        -3.5082   -1.6837    0.9809 H         1 UNK         0.0000 
     80 H80        -2.2272   -2.1314    2.1598 H         1 UNK         0.0000 
     81 H81        -3.4241   -3.3638    1.6515 H         1 UNK         0.0000 
     82 O82        -1.1337   -1.6111   -0.4763 O.2       1 UNK         0.0000 
@<TRIPOS>BOND
     1    1    3 1    
     2    1    2 1    
     3    1    4 1    
     4    1    5 1    
     5    5    6 1    
     6    5   10 1    
     7    5   14 1    
     8    6    8 1    
     9    6    7 1    
    10    6    9 1    
    11   10   13 1    
    12   10   12 1    
    13   10   11 1    
    14   14   15 1    
    15   15   16 2    
    16   15   17 am   BACKBONE|DICT|INTERRES
    17   17   19 1    
    18   17   18 1    
    19   19   24 1    
    20   19   25 1    
    21   19   20 1    
    22   20   21 am   BACKBONE|DICT|INTERRES
    23   20   23 2    
    24   21   22 1    
    25   21   58 1    
    26   25   26 1    
    27   25   28 1    
    28   25   27 1    
    29   28   33 ar   
    30   28   29 ar   
    31   29   30 ar   
    32   29   32 1    
    33   30   37 ar   
    34   30   31 1    
    35   33   35 ar   
    36   33   34 1    
    37   35   36 1    
    38   35   37 ar   
    39   37   38 1    
    40   38   39 1    
    41   39   40 ar   
    42   39   44 ar   
    43   40   43 1    
    44   40   41 ar   
    45   41   42 1    
    46   41   48 ar   
    47   44   45 1    
    48   44   46 ar   
    49   46   47 1    
    50   46   48 ar   
    51   48   49 1    
    52   49   50 2    
    53   49   51 1    
    54   51   54 1    
    55   51   52 1    
    56   51   53 1    
    57   54   56 am   BACKBONE|DICT|INTERRES
    58   54   55 1    
    59   56   58 1    
    60   56   57 2    
    61   58   59 1    
    62   58   60 1    
    63   60   62 1    
    64   60   61 1    
    65   60   63 1    
    66   63   72 ar   
    67   63   64 ar   
    68   64   65 1    
    69   64   66 ar   
    70   66   68 ar   
    71   66   67 1    
    72   68   70 ar   
    73   68   69 1    
    74   70   72 ar   
    75   70   71 1    
    76   73   76 1    
    77   73   77 1    
    78   73   74 1    
    79   73   75 1    
    80   77   78 1    
    81   77   82 2    
    82   78   81 1    
    83   78   80 1    
    84   78   79 1    
@<TRIPOS>SUBSTRUCTURE
     1 UNK         1 GROUP             0       ****    0 ROOT    
@<TRIPOS>MOLECULE
Cpd5-4000
82   84    1
SMALL
USER_CHARGES


@<TRIPOS>ATOM
      1 C1         -6.4057   -0.7456    0.3480 C.3       1 UNK         0.0000 
      2 H2         -6.0770   -0.7513    1.3918 H         1 UNK         0.0000 
      3 H3         -6.5506    0.2843    0.0226 H         1 UNK         0.0000 
      4 H4         -7.3615   -1.2743    0.2873 H         1 UNK         0.0000 
      5 C5         -5.3840   -1.4691   -0.5243 C.3       1 UNK         0.0000 
      6 C6         -5.7197   -1.3936   -2.0106 C.3       1 UNK         0.0000 
      7 H7         -4.9270   -1.8675   -2.5978 H         1 UNK         0.0000 
      8 H8         -6.6521   -1.9357   -2.1928 H         1 UNK         0.0000 
      9 H9         -5.8445   -0.3617   -2.3399 H         1 UNK         0.0000 
     10 C10        -5.2512   -2.9224   -0.0864 C.3       1 UNK         0.0000 
     11 H11        -4.4855   -3.4328   -0.6786 H         1 UNK         0.0000 
     12 H12        -4.9878   -2.9837    0.9733 H         1 UNK         0.0000 
     13 H13        -6.2034   -3.4378   -0.2355 H         1 UNK         0.0000 
     14 O14        -4.0418   -0.9272   -0.2880 O.3       1 UNK         0.0000 
     15 C15        -3.7582    0.3487   -0.6078 C.2       1 UNK         0.0000 
     16 O16        -4.5680    1.1776   -0.9933 O.2       1 UNK         0.0000 
     17 N17        -2.4275    0.5930   -0.4516 N.am      1 UNK         0.0000 
     18 H18        -1.8758   -0.1244    0.0165 H         1 UNK         0.0000 
     19 C19        -1.9522    1.9594   -0.4508 C.3       1 UNK         0.0000 
     20 C20        -0.5339    2.1138   -0.9997 C.2       1 UNK         0.0000 
     21 N21         0.2103    1.0064   -1.2194 N.am      1 UNK         0.0000 
     22 H22        -0.1805    0.0837   -1.0320 H         1 UNK         0.0000 
     23 O23        -0.1033    3.2509   -1.1998 O.2       1 UNK         0.0000 
     24 H24        -2.5966    2.5236   -1.1294 H         1 UNK         0.0000 
     25 C25        -2.0523    2.6129    0.9544 C.3       1 UNK         0.0000 
     26 H26        -3.1051    2.5696    1.2516 H         1 UNK         0.0000 
     27 H27        -1.7667    3.6642    0.8644 H         1 UNK         0.0000 
     28 C28        -1.1760    1.9071    1.9578 C.ar      1 UNK         0.0000 
     29 C29        -1.5790    0.6998    2.5440 C.ar      1 UNK         0.0000 
     30 C30        -0.6960   -0.0529    3.3153 C.ar      1 UNK         0.0000 
     31 H31        -0.9894   -1.0153    3.7235 H         1 UNK         0.0000 
     32 H32        -2.5860    0.3266    2.3722 H         1 UNK         0.0000 
     33 C33         0.1034    2.3930    2.2485 C.ar      1 UNK         0.0000 
     34 H34         0.4210    3.3445    1.8294 H         1 UNK         0.0000 
     35 C35         0.9912    1.6596    3.0343 C.ar      1 UNK         0.0000 
     36 H36         1.9928    2.0270    3.2340 H         1 UNK         0.0000 
     37 C37         0.5972    0.4170    3.5196 C.ar      1 UNK         0.0000 
     38 O38         1.5344   -0.4172    4.1441 O.3       1 UNK         0.0000 
     39 C39         2.0980   -1.2444    3.1790 C.ar      1 UNK         0.0000 
     40 C40         3.0323   -0.7105    2.2917 C.ar      1 UNK         0.0000 
     41 C41         3.3622   -1.4213    1.1479 C.ar      1 UNK         0.0000 
     42 H42         4.0046   -0.9485    0.4086 H         1 UNK         0.0000 
     43 H43         3.4232    0.2890    2.4519 H         1 UNK         0.0000 
     44 C44         1.6446   -2.5543    3.0465 C.ar      1 UNK         0.0000 
     45 H45         0.9525   -2.9604    3.7769 H         1 UNK         0.0000 
     46 C46         2.0201   -3.2833    1.9193 C.ar      1 UNK         0.0000 
     47 H47         1.6379   -4.2893    1.7691 H         1 UNK         0.0000 
     48 C48         2.8134   -2.6905    0.9314 C.ar      1 UNK         0.0000 
     49 C49         2.9188   -3.3391   -0.4034 C.2       1 UNK         0.0000 
     50 O50         2.9591   -4.5479   -0.5449 O.2       1 UNK         0.0000 
     51 C51         2.8879   -2.4311   -1.6367 C.3       1 UNK         0.0000 
     52 H52         3.9075   -2.0800   -1.8431 H         1 UNK         0.0000 
     53 H53         2.5775   -3.0466   -2.4872 H         1 UNK         0.0000 
     54 N54         2.0384   -1.2665   -1.4488 N.am      1 UNK         0.0000 
     55 H55         1.2683   -1.3312   -0.7821 H         1 UNK         0.0000 
     56 C56         2.2749   -0.1258   -2.1319 C.2       1 UNK         0.0000 
     57 O57         3.1100   -0.0580   -3.0320 O.2       1 UNK         0.0000 
     58 C58         1.5955    1.1588   -1.6500 C.3       1 UNK         0.0000 
     59 H59         1.6197    1.8524   -2.4951 H         1 UNK         0.0000 
     60 C60         2.4511    1.7425   -0.4938 C.3       1 UNK         0.0000 
     61 H61         2.4227    1.0393    0.3429 H         1 UNK         0.0000 
     62 H62         1.9707    2.6732   -0.1840 H         1 UNK         0.0000 
     63 C63         3.8784    2.0046   -0.8951 C.ar      1 UNK         0.0000 
     64 C64         4.2134    3.1555   -1.6167 C.ar      1 UNK         0.0000 
     65 H65         3.4435    3.8816   -1.8614 H         1 UNK         0.0000 
     66 C66         5.5332    3.3476   -2.0082 C.ar      1 UNK         0.0000 
     67 H67         5.8191    4.2313   -2.5699 H         1 UNK         0.0000 
     68 C68         6.4812    2.3864   -1.6620 C.ar      1 UNK         0.0000 
     69 H69         7.5233    2.4911   -1.9423 H         1 UNK         0.0000 
     70 C70         6.0571    1.2780   -0.9344 C.ar      1 UNK         0.0000 
     71 H71         6.7679    0.5097   -0.6391 H         1 UNK         0.0000 
     72 N72         4.7888    1.0815   -0.5568 N.ar      1 UNK         0.0000 
     73 C73        -1.9883   -3.4047    1.0904 C.3       1 UNK         0.0000 
     74 H74        -2.6373   -2.6401    1.5213 H         1 UNK         0.0000 
     75 H75        -1.1040   -3.5571    1.7136 H         1 UNK         0.0000 
     76 H76        -2.5410   -4.3350    0.9460 H         1 UNK         0.0000 
     77 S77        -1.4444   -2.7692   -0.5028 S.3       1 UNK         0.0000 
     78 C78        -0.3460   -4.1134   -0.9756 C.3       1 UNK         0.0000 
     79 H79        -0.9554   -4.9929   -1.1936 H         1 UNK         0.0000 
     80 H80         0.3533   -4.3188   -0.1641 H         1 UNK         0.0000 
     81 H81         0.1801   -3.7996   -1.8790 H         1 UNK         0.0000 
     82 O82        -0.5140   -1.5938   -0.1083 O.2       1 UNK         0.0000 
@<TRIPOS>BOND
     1    1    2 1    
     2    1    3 1    
     3    1    4 1    
     4    1    5 1    
     5    5   10 1    
     6    5   14 1    
     7    5    6 1    
     8    6    7 1    
     9    6    8 1    
    10    6    9 1    
    11   10   12 1    
    12   10   11 1    
    13   10   13 1    
    14   14   15 1    
    15   15   17 am   BACKBONE|DICT|INTERRES
    16   15   16 2    
    17   17   19 1    
    18   17   18 1    
    19   19   24 1    
    20   19   25 1    
    21   19   20 1    
    22   20   23 2    
    23   20   21 am   BACKBONE|DICT|INTERRES
    24   21   22 1    
    25   21   58 1    
    26   25   27 1    
    27   25   26 1    
    28   25   28 1    
    29   28   29 ar   
    30   28   33 ar   
    31   29   30 ar   
    32   29   32 1    
    33   30   31 1    
    34   30   37 ar   
    35   33   35 ar   
    36   33   34 1    
    37   35   37 ar   
    38   35   36 1    
    39   37   38 1    
    40   38   39 1    
    41   39   40 ar   
    42   39   44 ar   
    43   40   43 1    
    44   40   41 ar   
    45   41   42 1    
    46   41   48 ar   
    47   44   45 1    
    48   44   46 ar   
    49   46   47 1    
    50   46   48 ar   
    51   48   49 1    
    52   49   50 2    
    53   49   51 1    
    54   51   54 1    
    55   51   52 1    
    56   51   53 1    
    57   54   55 1    
    58   54   56 am   BACKBONE|DICT|INTERRES
    59   56   58 1    
    60   56   57 2    
    61   58   59 1    
    62   58   60 1    
    63   60   62 1    
    64   60   61 1    
    65   60   63 1    
    66   63   72 ar   
    67   63   64 ar   
    68   64   65 1    
    69   64   66 ar   
    70   66   68 ar   
    71   66   67 1    
    72   68   70 ar   
    73   68   69 1    
    74   70   71 1    
    75   70   72 ar   
    76   73   74 1    
    77   73   75 1    
    78   73   76 1    
    79   73   77 1    
    80   77   82 2    
    81   77   78 1    
    82   78   80 1    
    83   78   79 1    
    84   78   81 1    
@<TRIPOS>SUBSTRUCTURE
     1 UNK         1 GROUP             0       ****    0 ROOT    
@<TRIPOS>MOLECULE
Cpd5-4500
82   84    1
SMALL
USER_CHARGES


@<TRIPOS>ATOM
      1 C1         -6.6693    0.3435    0.5760 C.3       1 UNK         0.0000 
      2 H2         -6.2666    0.1578    1.5765 H         1 UNK         0.0000 
      3 H3         -6.6069    1.4089    0.3547 H         1 UNK         0.0000 
      4 H4         -7.7208    0.0420    0.5689 H         1 UNK         0.0000 
      5 C5         -5.9105   -0.4870   -0.4546 C.3       1 UNK         0.0000 
      6 C6         -6.3479   -0.1912   -1.8863 C.3       1 UNK         0.0000 
      7 H7         -7.3849   -0.5150   -2.0134 H         1 UNK         0.0000 
      8 H8         -6.2810    0.8727   -2.1131 H         1 UNK         0.0000 
      9 H9         -5.7270   -0.7509   -2.5933 H         1 UNK         0.0000 
     10 C10        -6.0683   -1.9726   -0.1536 C.3       1 UNK         0.0000 
     11 H11        -5.7387   -2.1997    0.8644 H         1 UNK         0.0000 
     12 H12        -7.1210   -2.2516   -0.2452 H         1 UNK         0.0000 
     13 H13        -5.4900   -2.5756   -0.8606 H         1 UNK         0.0000 
     14 O14        -4.4649   -0.2682   -0.3128 O.3       1 UNK         0.0000 
     15 C15        -3.9423    0.9567   -0.5249 C.2       1 UNK         0.0000 
     16 O16        -4.5876    1.9526   -0.8137 O.2       1 UNK         0.0000 
     17 N17        -2.5879    0.9352   -0.3915 N.am      1 UNK         0.0000 
     18 H18        -2.1641    0.0961    0.0080 H         1 UNK         0.0000 
     19 C19        -1.8766    2.1983   -0.4040 C.3       1 UNK         0.0000 
     20 C20        -0.4630    2.1356   -0.9863 C.2       1 UNK         0.0000 
     21 N21         0.1150    0.9353   -1.2132 N.am      1 UNK         0.0000 
     22 H22        -0.3759    0.0761   -0.9663 H         1 UNK         0.0000 
     23 O23         0.1170    3.1992   -1.2124 O.2       1 UNK         0.0000 
     24 H24        -2.4296    2.8608   -1.0742 H         1 UNK         0.0000 
     25 C25        -1.8460    2.8750    0.9925 C.3       1 UNK         0.0000 
     26 H26        -2.8855    2.9907    1.3145 H         1 UNK         0.0000 
     27 H27        -1.4128    3.8718    0.8747 H         1 UNK         0.0000 
     28 C28        -1.0550    2.0672    1.9882 C.ar      1 UNK         0.0000 
     29 C29        -1.6486    1.0411    2.7313 C.ar      1 UNK         0.0000 
     30 C30        -0.8782    0.1841    3.5197 C.ar      1 UNK         0.0000 
     31 H31        -1.3319   -0.6363    4.0664 H         1 UNK         0.0000 
     32 H32        -2.7238    0.8894    2.6741 H         1 UNK         0.0000 
     33 C33         0.3250    2.2698    2.1124 C.ar      1 UNK         0.0000 
     34 H34         0.7933    3.0881    1.5712 H         1 UNK         0.0000 
     35 C35         1.1076    1.4167    2.8836 C.ar      1 UNK         0.0000 
     36 H36         2.1851    1.5411    2.9391 H         1 UNK         0.0000 
     37 C37         0.5006    0.3548    3.5486 C.ar      1 UNK         0.0000 
     38 O38         1.3107   -0.6005    4.1754 O.3       1 UNK         0.0000 
     39 C39         1.8849   -1.4060    3.2015 C.ar      1 UNK         0.0000 
     40 C40         3.2461   -1.2949    2.9285 C.ar      1 UNK         0.0000 
     41 C41         3.7577   -1.9194    1.7920 C.ar      1 UNK         0.0000 
     42 H42         4.8032   -1.7934    1.5257 H         1 UNK         0.0000 
     43 H43         3.8698   -0.6658    3.5547 H         1 UNK         0.0000 
     44 C44         1.0630   -2.2425    2.4471 C.ar      1 UNK         0.0000 
     45 H45         0.0143   -2.3461    2.7030 H         1 UNK         0.0000 
     46 C46         1.5754   -2.8361    1.3057 C.ar      1 UNK         0.0000 
     47 H47         0.9179   -3.4324    0.6794 H         1 UNK         0.0000 
     48 C48         2.9093   -2.6291    0.9350 C.ar      1 UNK         0.0000 
     49 C49         3.3675   -2.9685   -0.4441 C.2       1 UNK         0.0000 
     50 O50         4.5246   -3.2345   -0.7083 O.2       1 UNK         0.0000 
     51 C51         2.3112   -2.8262   -1.5533 C.3       1 UNK         0.0000 
     52 H52         2.8175   -2.8688   -2.5170 H         1 UNK         0.0000 
     53 H53         1.5893   -3.6480   -1.4964 H         1 UNK         0.0000 
     54 N54         1.6242   -1.5471   -1.4372 N.am      1 UNK         0.0000 
     55 H55         0.9804   -1.4194   -0.6577 H         1 UNK         0.0000 
     56 C56         1.9500   -0.4778   -2.2044 C.2       1 UNK         0.0000 
     57 O57         2.6869   -0.5505   -3.1830 O.2       1 UNK         0.0000 
     58 C58         1.4897    0.8917   -1.6988 C.3       1 UNK         0.0000 
     59 H59         1.5849    1.5846   -2.5383 H         1 UNK         0.0000 
     60 C60         2.4865    1.3264   -0.5912 C.3       1 UNK         0.0000 
     61 H61         2.4468    0.6001    0.2304 H         1 UNK         0.0000 
     62 H62         2.1495    2.2961   -0.2192 H         1 UNK         0.0000 
     63 C63         3.8870    1.4618   -1.1279 C.ar      1 UNK         0.0000 
     64 C64         4.8578    0.4875   -0.8861 C.ar      1 UNK         0.0000 
     65 H65         4.6141   -0.3751   -0.2747 H         1 UNK         0.0000 
     66 C66         6.1240    0.6372   -1.4426 C.ar      1 UNK         0.0000 
     67 H67         6.8935   -0.1086   -1.2698 H         1 UNK         0.0000 
     68 C68         6.3796    1.7593   -2.2252 C.ar      1 UNK         0.0000 
     69 H69         7.3489    1.9240   -2.6821 H         1 UNK         0.0000 
     70 C70         5.3492    2.6794   -2.4119 C.ar      1 UNK         0.0000 
     71 H71         5.5121    3.5690   -3.0153 H         1 UNK         0.0000 
     72 N72         4.1299    2.5439   -1.8816 N.ar      1 UNK         0.0000 
     73 C73        -2.4593   -2.2995   -2.1037 C.3       1 UNK         0.0000 
     74 H74        -1.7749   -1.8388   -2.8178 H         1 UNK         0.0000 
     75 H75        -3.2241   -1.5915   -1.7772 H         1 UNK         0.0000 
     76 H76        -2.9042   -3.1969   -2.5386 H         1 UNK         0.0000 
     77 S77        -1.4697   -2.7847   -0.6785 S.3       1 UNK         0.0000 
     78 C78        -2.7837   -3.2993    0.4355 C.3       1 UNK         0.0000 
     79 H79        -3.3330   -4.1312   -0.0099 H         1 UNK         0.0000 
     80 H80        -3.4285   -2.4338    0.6020 H         1 UNK         0.0000 
     81 H81        -2.3075   -3.6164    1.3639 H         1 UNK         0.0000 
     82 O82        -0.9629   -1.4608   -0.0541 O.2       1 UNK         0.0000 
@<TRIPOS>BOND
     1    1    3 1    
     2    1    2 1    
     3    1    4 1    
     4    1    5 1    
     5    5   14 1    
     6    5    6 1    
     7    5   10 1    
     8    6    8 1    
     9    6    7 1    
    10    6    9 1    
    11   10   11 1    
    12   10   12 1    
    13   10   13 1    
    14   14   15 1    
    15   15   16 2    
    16   15   17 am   BACKBONE|DICT|INTERRES
    17   17   18 1    
    18   17   19 1    
    19   19   24 1    
    20   19   25 1    
    21   19   20 1    
    22   20   23 2    
    23   20   21 am   BACKBONE|DICT|INTERRES
    24   21   22 1    
    25   21   58 1    
    26   25   26 1    
    27   25   27 1    
    28   25   28 1    
    29   28   29 ar   
    30   28   33 ar   
    31   29   30 ar   
    32   29   32 1    
    33   30   31 1    
    34   30   37 ar   
    35   33   35 ar   
    36   33   34 1    
    37   35   37 ar   
    38   35   36 1    
    39   37   38 1    
    40   38   39 1    
    41   39   40 ar   
    42   39   44 ar   
    43   40   43 1    
    44   40   41 ar   
    45   41   42 1    
    46   41   48 ar   
    47   44   45 1    
    48   44   46 ar   
    49   46   47 1    
    50   46   48 ar   
    51   48   49 1    
    52   49   50 2    
    53   49   51 1    
    54   51   54 1    
    55   51   52 1    
    56   51   53 1    
    57   54   55 1    
    58   54   56 am   BACKBONE|DICT|INTERRES
    59   56   58 1    
    60   56   57 2    
    61   58   59 1    
    62   58   60 1    
    63   60   61 1    
    64   60   62 1    
    65   60   63 1    
    66   63   64 ar   
    67   63   72 ar   
    68   64   65 1    
    69   64   66 ar   
    70   66   67 1    
    71   66   68 ar   
    72   68   70 ar   
    73   68   69 1    
    74   70   72 ar   
    75   70   71 1    
    76   73   75 1    
    77   73   77 1    
    78   73   74 1    
    79   73   76 1    
    80   77   78 1    
    81   77   82 2    
    82   78   80 1    
    83   78   81 1    
    84   78   79 1    
@<TRIPOS>SUBSTRUCTURE
     1 UNK         1 GROUP             0       ****    0 ROOT    
@<TRIPOS>MOLECULE
Cpd5-5000
82   84    1
SMALL
USER_CHARGES


@<TRIPOS>ATOM
      1 C1         -6.0273   -1.0060    0.9355 C.3       1 UNK         0.0000 
      2 H2         -6.0948    0.0809    0.9949 H         1 UNK         0.0000 
      3 H3         -7.0290   -1.4274    1.0595 H         1 UNK         0.0000 
      4 H4         -5.3965   -1.3737    1.7512 H         1 UNK         0.0000 
      5 C5         -5.4591   -1.4520   -0.4082 C.3       1 UNK         0.0000 
      6 C6         -6.2706   -0.9332   -1.5929 C.3       1 UNK         0.0000 
      7 H7         -7.2365   -1.4466   -1.6071 H         1 UNK         0.0000 
      8 H8         -6.4408    0.1404   -1.5277 H         1 UNK         0.0000 
      9 H9         -5.7508   -1.1598   -2.5290 H         1 UNK         0.0000 
     10 C10        -5.3749   -2.9733   -0.4727 C.3       1 UNK         0.0000 
     11 H11        -6.3751   -3.3953   -0.3465 H         1 UNK         0.0000 
     12 H12        -4.9841   -3.3002   -1.4404 H         1 UNK         0.0000 
     13 H13        -4.7348   -3.3666    0.3218 H         1 UNK         0.0000 
     14 O14        -4.0567   -1.0274   -0.5091 O.3       1 UNK         0.0000 
     15 C15        -3.7506    0.2880   -0.5304 C.2       1 UNK         0.0000 
     16 O16        -4.5708    1.1953   -0.5323 O.2       1 UNK         0.0000 
     17 N17        -2.4091    0.4826   -0.5556 N.am      1 UNK         0.0000 
     18 H18        -1.7884   -0.3256   -0.4514 H         1 UNK         0.0000 
     19 C19        -1.9205    1.8502   -0.5200 C.3       1 UNK         0.0000 
     20 C20        -0.5109    2.0188   -1.0937 C.2       1 UNK         0.0000 
     21 N21         0.4268    1.0605   -0.8604 N.am      1 UNK         0.0000 
     22 H22         0.2481    0.3683   -0.1349 H         1 UNK         0.0000 
     23 O23        -0.2633    3.0326   -1.7412 O.2       1 UNK         0.0000 
     24 H24        -2.5519    2.4374   -1.1903 H         1 UNK         0.0000 
     25 C25        -2.0470    2.5016    0.8867 C.3       1 UNK         0.0000 
     26 H26        -3.1062    2.4451    1.1550 H         1 UNK         0.0000 
     27 H27        -1.7818    3.5594    0.7925 H         1 UNK         0.0000 
     28 C28        -1.1844    1.8323    1.9214 C.ar      1 UNK         0.0000 
     29 C29        -1.5347    0.5853    2.4559 C.ar      1 UNK         0.0000 
     30 C30        -0.6390   -0.1229    3.2517 C.ar      1 UNK         0.0000 
     31 H31        -0.8867   -1.1073    3.6354 H         1 UNK         0.0000 
     32 H32        -2.5032    0.1503    2.2227 H         1 UNK         0.0000 
     33 C33         0.0346    2.4005    2.3018 C.ar      1 UNK         0.0000 
     34 H34         0.2930    3.3886    1.9297 H         1 UNK         0.0000 
     35 C35         0.9429    1.7023    3.0976 C.ar      1 UNK         0.0000 
     36 H36         1.9125    2.1221    3.3500 H         1 UNK         0.0000 
     37 C37         0.6168    0.4174    3.5145 C.ar      1 UNK         0.0000 
     38 O38         1.5957   -0.3935    4.1028 O.3       1 UNK         0.0000 
     39 C39         2.1049   -1.2198    3.1050 C.ar      1 UNK         0.0000 
     40 C40         2.9845   -0.6805    2.1655 C.ar      1 UNK         0.0000 
     41 C41         3.2495   -1.3907    1.0032 C.ar      1 UNK         0.0000 
     42 H42         3.8845   -0.9499    0.2385 H         1 UNK         0.0000 
     43 H43         3.3898    0.3144    2.3180 H         1 UNK         0.0000 
     44 C44         1.6403   -2.5266    2.9916 C.ar      1 UNK         0.0000 
     45 H45         1.0017   -2.9398    3.7657 H         1 UNK         0.0000 
     46 C46         1.9370   -3.2454    1.8353 C.ar      1 UNK         0.0000 
     47 H47         1.5329   -4.2432    1.6914 H         1 UNK         0.0000 
     48 C48         2.6718   -2.6511    0.8047 C.ar      1 UNK         0.0000 
     49 C49         2.6907   -3.3176   -0.5281 C.2       1 UNK         0.0000 
     50 O50         2.6839   -4.5295   -0.6453 O.2       1 UNK         0.0000 
     51 C51         2.6367   -2.4438   -1.7899 C.3       1 UNK         0.0000 
     52 H52         3.6620   -2.2048   -2.0915 H         1 UNK         0.0000 
     53 H53         2.1876   -3.0589   -2.5743 H         1 UNK         0.0000 
     54 N54         1.9182   -1.1963   -1.6236 N.am      1 UNK         0.0000 
     55 H55         0.9674   -1.2512   -1.2513 H         1 UNK         0.0000 
     56 C56         2.5480   -0.0105   -1.7149 C.2       1 UNK         0.0000 
     57 O57         3.7209    0.0954   -2.0798 O.2       1 UNK         0.0000 
     58 C58         1.7955    1.2673   -1.3241 C.3       1 UNK         0.0000 
     59 H59         1.7264    1.8550   -2.2452 H         1 UNK         0.0000 
     60 C60         2.6566    2.0731   -0.3239 C.3       1 UNK         0.0000 
     61 H61         3.6934    1.7327   -0.4127 H         1 UNK         0.0000 
     62 H62         2.3177    1.8602    0.6942 H         1 UNK         0.0000 
     63 C63         2.6476    3.5631   -0.5787 C.ar      1 UNK         0.0000 
     64 C64         2.5030    4.4774    0.4679 C.ar      1 UNK         0.0000 
     65 H65         2.3841    4.1236    1.4870 H         1 UNK         0.0000 
     66 C66         2.5314    5.8405    0.1870 C.ar      1 UNK         0.0000 
     67 H67         2.4154    6.5687    0.9835 H         1 UNK         0.0000 
     68 C68         2.7112    6.2485   -1.1312 C.ar      1 UNK         0.0000 
     69 H69         2.7358    7.2977   -1.4033 H         1 UNK         0.0000 
     70 C70         2.8729    5.2638   -2.1047 C.ar      1 UNK         0.0000 
     71 H71         3.0343    5.5420   -3.1436 H         1 UNK         0.0000 
     72 N72         2.8468    3.9547   -1.8437 N.ar      1 UNK         0.0000 
     73 C73        -1.9595   -3.5144   -1.4034 C.3       1 UNK         0.0000 
     74 H74        -2.7233   -2.7351   -1.4347 H         1 UNK         0.0000 
     75 H75        -2.3963   -4.5031   -1.2479 H         1 UNK         0.0000 
     76 H76        -1.3578   -3.5110   -2.3132 H         1 UNK         0.0000 
     77 S77        -0.8393   -3.1443   -0.0441 S.3       1 UNK         0.0000 
     78 C78        -2.0063   -3.1568    1.3245 C.3       1 UNK         0.0000 
     79 H79        -1.4340   -2.9269    2.2240 H         1 UNK         0.0000 
     80 H80        -2.4496   -4.1511    1.4093 H         1 UNK         0.0000 
     81 H81        -2.7618   -2.3906    1.1312 H         1 UNK         0.0000 
     82 O82        -0.4998   -1.6462   -0.2327 O.2       1 UNK         0.0000 
@<TRIPOS>BOND
     1    1    3 1    
     2    1    2 1    
     3    1    4 1    
     4    1    5 1    
     5    5    6 1    
     6    5   10 1    
     7    5   14 1    
     8    6    8 1    
     9    6    7 1    
    10    6    9 1    
    11   10   11 1    
    12   10   13 1    
    13   10   12 1    
    14   14   15 1    
    15   15   16 2    
    16   15   17 am   BACKBONE|DICT|INTERRES
    17   17   19 1    
    18   17   18 1    
    19   19   24 1    
    20   19   25 1    
    21   19   20 1    
    22   20   21 am   BACKBONE|DICT|INTERRES
    23   20   23 2    
    24   21   22 1    
    25   21   58 1    
    26   25   27 1    
    27   25   26 1    
    28   25   28 1    
    29   28   29 ar   
    30   28   33 ar   
    31   29   30 ar   
    32   29   32 1    
    33   30   37 ar   
    34   30   31 1    
    35   33   35 ar   
    36   33   34 1    
    37   35   36 1    
    38   35   37 ar   
    39   37   38 1    
    40   38   39 1    
    41   39   40 ar   
    42   39   44 ar   
    43   40   43 1    
    44   40   41 ar   
    45   41   42 1    
    46   41   48 ar   
    47   44   45 1    
    48   44   46 ar   
    49   46   47 1    
    50   46   48 ar   
    51   48   49 1    
    52   49   50 2    
    53   49   51 1    
    54   51   54 1    
    55   51   52 1    
    56   51   53 1    
    57   54   56 am   BACKBONE|DICT|INTERRES
    58   54   55 1    
    59   56   58 1    
    60   56   57 2    
    61   58   59 1    
    62   58   60 1    
    63   60   62 1    
    64   60   61 1    
    65   60   63 1    
    66   63   64 ar   
    67   63   72 ar   
    68   64   65 1    
    69   64   66 ar   
    70   66   67 1    
    71   66   68 ar   
    72   68   69 1    
    73   68   70 ar   
    74   70   72 ar   
    75   70   71 1    
    76   73   75 1    
    77   73   74 1    
    78   73   77 1    
    79   73   76 1    
    80   77   82 2    
    81   77   78 1    
    82   78   79 1    
    83   78   80 1    
    84   78   81 1    
@<TRIPOS>SUBSTRUCTURE
     1 UNK         1 GROUP             0       ****    0 ROOT    
