@<TRIPOS>MOLECULE
Cpd5-1
72   75    1
SMALL
USER_CHARGES


@<TRIPOS>ATOM
      1 N1         10.8343    9.4488   -4.4805 N.am      1 ****       -0.5819 
      2 O2         11.7304    7.9423   -1.7272 O.2       1 ****       -0.4360 
      3 C3          9.2800   15.7073   -7.5306 C.ar      1 ****       -0.1736 
      4 N4         12.4409   11.9511   -6.6060 N.am      1 ****       -0.4289 
      5 O5         12.4680   10.9784   -8.6658 O.2       1 ****       -0.5099 
      6 C6          9.5439   14.8660   -8.6132 C.ar      1 ****       -0.0789 
      7 N7         14.4824   13.7451   -7.3181 N.am      1 ****       -0.3763 
      8 O8         12.0788    9.0816   -6.3596 O.2       1 ****       -0.5158 
      9 C9          9.2312   15.1504   -6.2515 C.ar      1 ****        0.0068 
     10 O10        12.8076   15.3347   -7.7130 O.2       1 ****       -0.5744 
     11 C11         9.7527   13.5034   -8.3911 C.ar      1 ****       -0.1628 
     12 O12        16.9223    8.0277   -5.5143 O.3       1 ****       -0.3030 
     13 C13        15.7050    9.6534   -8.5522 C.ar      1 ****       -0.1185 
     14 C14        16.5998   11.3274   -7.0496 C.ar      1 ****       -0.1185 
     15 C15        14.3488    8.5159   -2.9603 C.ar      1 ****       -0.0703 
     16 C16        13.5490    6.9477   -4.6232 C.ar      1 ****       -0.0703 
     17 C17        16.1398    8.6508   -7.6938 C.ar      1 ****       -0.1314 
     18 C18        17.0228   10.3245   -6.1832 C.ar      1 ****       -0.1314 
     19 C19        15.5917    8.5437   -3.5871 C.ar      1 ****       -0.1479 
     20 C20        14.7944    6.9639   -5.2383 C.ar      1 ****       -0.1479 
     21 C21        15.2351   12.0846   -9.0521 C.3       1 ****       -0.1110 
     22 C22        10.7695    8.0937   -3.9171 C.3       1 ****        0.0042 
     23 C23         9.9427   11.5491   -6.7637 C.3       1 ****       -0.0980 
     24 C24        15.8876   10.9940   -8.2053 C.ar      1 ****       -0.0925 
     25 C25         9.6903   13.0219   -7.0785 C.ar      1 ****        0.0250 
     26 C26        13.3031    7.7758   -3.5230 C.ar      1 ****       -0.1968 
     27 C27        16.7421    8.9896   -6.4797 C.ar      1 ****        0.1208 
     28 C28        15.7954    7.8099   -4.7574 C.ar      1 ****        0.1380 
     29 C29        11.9363    7.8446   -2.9375 C.2       1 ****        0.5399 
     30 C30        12.9071   11.8041   -7.8649 C.2       1 ****        0.5018 
     31 C31        11.4479    9.8337   -5.6173 C.2       1 ****        0.4997 
     32 C32        13.8013   14.9393   -7.0996 C.2       1 ****        0.6108 
     33 C33        14.0343   12.7725   -8.3358 C.3       1 ****        0.0376 
     34 C34        11.2667   11.3231   -5.9792 C.3       1 ****        0.0346 
     35 H35        13.5718   13.3571   -9.1351 H         1 ****        0.0871 
     36 H36        11.1718   11.8515   -5.0288 H         1 ****        0.0942 
     37 H37         9.1193   16.7647   -7.6793 H         1 ****        0.1486 
     38 H38         9.5915   15.2671   -9.6147 H         1 ****        0.1420 
     39 H39         9.0322   15.7699   -5.3896 H         1 ****        0.1638 
     40 H40         9.9682   12.8424   -9.2180 H         1 ****        0.1472 
     41 H41        15.1677    9.3856   -9.4503 H         1 ****        0.1361 
     42 H42        16.7655   12.3610   -6.7841 H         1 ****        0.1361 
     43 H43        14.1868    9.1314   -2.0866 H         1 ****        0.1456 
     44 H44        12.7703    6.3282   -5.0442 H         1 ****        0.1456 
     45 H45        15.9292    7.6182   -7.9301 H         1 ****        0.1431 
     46 H46        17.4949   10.5868   -5.2477 H         1 ****        0.1431 
     47 H47        16.3699    9.1895   -3.2076 H         1 ****        0.1463 
     48 H48        14.9546    6.3808   -6.1331 H         1 ****        0.1463 
     49 H49        15.9920   12.8177   -9.3359 H         1 ****        0.0930 
     50 H50        14.8929   11.6499   -9.9935 H         1 ****        0.0930 
     51 H51         9.8174    7.9764   -3.3980 H         1 ****        0.1060 
     52 H52        10.7493    7.3311   -4.6969 H         1 ****        0.1060 
     53 H53         9.0910   11.1732   -6.1930 H         1 ****        0.0942 
     54 H54         9.9488   10.9802   -7.6953 H         1 ****        0.0942 
     55 H55        10.3278   10.1529   -3.9632 H         1 ****        0.3239 
     56 H56        12.8896   12.6460   -6.0265 H         1 ****        0.2986 
     57 H57        15.2523   13.4924   -6.7154 H         1 ****        0.2769 
     58 O58        14.3994   15.5975   -6.0700 O.3       1 ****       -0.3380 
     59 C59        13.9480   16.8420   -5.5009 C.3       1 ****        0.3047 
     60 C60        12.5231   16.7069   -4.9064 C.3       1 ****       -0.2327 
     61 H61        12.2409   17.5972   -4.3430 H         1 ****        0.0753 
     62 H62        11.7668   16.5646   -5.6777 H         1 ****        0.0753 
     63 H63        12.4555   15.8552   -4.2283 H         1 ****        0.0753 
     64 C64        14.9492   17.1290   -4.3626 C.3       1 ****       -0.2327 
     65 H65        14.9481   16.3311   -3.6183 H         1 ****        0.0753 
     66 H66        15.9698   17.2134   -4.7392 H         1 ****        0.0753 
     67 H67        14.7136   18.0598   -3.8449 H         1 ****        0.0753 
     68 C68        14.0077   17.9907   -6.5390 C.3       1 ****       -0.2327 
     69 H69        13.7994   18.9557   -6.0753 H         1 ****        0.0753 
     70 H70        14.9938   18.0558   -7.0006 H         1 ****        0.0753 
     71 H71        13.2840   17.8596   -7.3433 H         1 ****        0.0753 
     72 N72         9.4321   13.8289   -6.0136 N.ar      1 ****       -0.2997 
@<TRIPOS>BOND
     1    1   55 1    
     2    1   22 1    
     3    1   31 am   BACKBONE|DICT|INTERRES
     4    2   29 2    
     5    3    6 ar   
     6    3    9 ar   
     7    3   37 1    
     8    4   56 1    
     9    4   30 am   BACKBONE|DICT|INTERRES
    10    4   34 1    
    11    5   30 2    
    12    6   11 ar   
    13    6   38 1    
    14    7   57 1    
    15    7   32 am   BACKBONE|DICT|INTERRES
    16    7   33 1    
    17    8   31 2    
    18    9   39 1    
    19    9   72 ar   
    20   10   32 2    
    21   11   25 ar   
    22   11   40 1    
    23   12   27 1    
    24   12   28 1    
    25   13   17 ar   
    26   13   24 ar   
    27   13   41 1    
    28   14   18 ar   
    29   14   24 ar   
    30   14   42 1    
    31   15   19 ar   
    32   15   26 ar   
    33   15   43 1    
    34   16   20 ar   
    35   16   26 ar   
    36   16   44 1    
    37   17   27 ar   
    38   17   45 1    
    39   18   27 ar   
    40   18   46 1    
    41   19   28 ar   
    42   19   47 1    
    43   20   28 ar   
    44   20   48 1    
    45   21   24 1    
    46   21   33 1    
    47   21   49 1    
    48   21   50 1    
    49   22   29 1    
    50   22   51 1    
    51   22   52 1    
    52   23   25 1    
    53   23   34 1    
    54   23   53 1    
    55   23   54 1    
    56   25   72 ar   
    57   26   29 1    
    58   30   33 1    
    59   31   34 1    
    60   32   58 1    
    61   33   35 1    
    62   34   36 1    
    63   58   59 1    
    64   59   60 1    
    65   59   64 1    
    66   59   68 1    
    67   60   61 1    
    68   60   62 1    
    69   60   63 1    
    70   64   65 1    
    71   64   66 1    
    72   64   67 1    
    73   68   69 1    
    74   68   70 1    
    75   68   71 1    
@<TRIPOS>SUBSTRUCTURE
     1 ****        1 GROUP             0       ****    0 ROOT    
@<TRIPOS>MOLECULE
Cpd5-2
72   75    1
SMALL
USER_CHARGES


@<TRIPOS>ATOM
      1 N1         10.9602    9.1285   -4.6121 N.am      1 ****       -0.5819 
      2 O2         11.3499    6.4771   -2.5812 O.2       1 ****       -0.4360 
      3 C3          8.9162    6.0724   -7.5706 C.ar      1 ****       -0.1736 
      4 N4         12.6262   11.3571   -7.0201 N.am      1 ****       -0.4289 
      5 O5         12.3486   11.4150   -9.2761 O.2       1 ****       -0.5099 
      6 C6         10.0904    5.6950   -6.9165 C.ar      1 ****       -0.0789 
      7 N7         14.4370   13.4550   -7.1231 N.am      1 ****       -0.3763 
      8 O8         12.0053   11.1359   -4.4347 O.2       1 ****       -0.5158 
      9 C9          8.8399    7.3563   -8.1132 C.ar      1 ****        0.0068 
     10 O10        15.6643   15.2282   -8.0319 O.2       1 ****       -0.5744 
     11 C11        11.1465    6.6029   -6.8208 C.ar      1 ****       -0.1628 
     12 O12        16.8512    8.0938   -5.4916 O.3       1 ****       -0.3030 
     13 C13        15.4980    9.6977   -8.4882 C.ar      1 ****       -0.1185 
     14 C14        16.8133   11.3044   -7.2449 C.ar      1 ****       -0.1185 
     15 C15        13.9910    8.8014   -3.3088 C.ar      1 ****       -0.0703 
     16 C16        13.8279    6.5347   -4.1364 C.ar      1 ****       -0.0703 
     17 C17        15.8762    8.6993   -7.5983 C.ar      1 ****       -0.1314 
     18 C18        17.1940   10.3045   -6.3539 C.ar      1 ****       -0.1314 
     19 C19        15.2273    8.9379   -3.9274 C.ar      1 ****       -0.1479 
     20 C20        15.0662    6.6732   -4.7601 C.ar      1 ****       -0.1479 
     21 C21        15.3057   12.1420   -9.1137 C.3       1 ****       -0.1110 
     22 C22        10.9265    8.7537   -3.1920 C.3       1 ****        0.0042 
     23 C23        12.1093    8.9118   -7.2987 C.3       1 ****       -0.0980 
     24 C24        15.9145   11.0140   -8.2759 C.ar      1 ****       -0.0925 
     25 C25        10.9906    7.8750   -7.3826 C.ar      1 ****        0.0250 
     26 C26        13.2515    7.6259   -3.4743 C.ar      1 ****       -0.1968 
     27 C27        16.6768    9.0161   -6.4978 C.ar      1 ****        0.1208 
     28 C28        15.7393    7.8939   -4.7037 C.ar      1 ****        0.1380 
     29 C29        11.8538    7.5389   -2.9493 C.2       1 ****        0.5399 
     30 C30        12.9248   11.8014   -8.2585 C.2       1 ****        0.5018 
     31 C31        11.5539   10.2217   -5.1279 C.2       1 ****        0.4997 
     32 C32        15.2385   14.5881   -7.0683 C.2       1 ****        0.6108 
     33 C33        14.0814   12.8308   -8.4122 C.3       1 ****        0.0376 
     34 C34        11.6872   10.2841   -6.6714 C.3       1 ****        0.0346 
     35 H35        13.7021   13.6212   -9.0641 H         1 ****        0.0871 
     36 H36        10.7188   10.5929   -7.0675 H         1 ****        0.0942 
     37 H37         8.0870    5.3858   -7.6565 H         1 ****        0.1486 
     38 H38        10.1819    4.7079   -6.4880 H         1 ****        0.1420 
     39 H39         7.9490    7.6834   -8.6287 H         1 ****        0.1638 
     40 H40        12.0605    6.3236   -6.3192 H         1 ****        0.1472 
     41 H41        14.8154    9.4615   -9.2915 H         1 ****        0.1361 
     42 H42        17.1575   12.3158   -7.0858 H         1 ****        0.1361 
     43 H43        13.5914    9.6399   -2.7567 H         1 ****        0.1456 
     44 H44        13.2906    5.6029   -4.2424 H         1 ****        0.1456 
     45 H45        15.4814    7.7007   -7.7156 H         1 ****        0.1431 
     46 H46        17.8205   10.5484   -5.5085 H         1 ****        0.1431 
     47 H47        15.7550    9.8777   -3.8583 H         1 ****        0.1463 
     48 H48        15.4674    5.8579   -5.3442 H         1 ****        0.1463 
     49 H49        16.0839   12.8745   -9.3320 H         1 ****        0.0930 
     50 H50        15.0136   11.7520  -10.0909 H         1 ****        0.0930 
     51 H51         9.8986    8.5147   -2.9156 H         1 ****        0.1060 
     52 H52        11.2243    9.5709   -2.5327 H         1 ****        0.1060 
     53 H53        12.9693    8.5043   -6.7629 H         1 ****        0.0942 
     54 H54        12.4646    9.0393   -8.3207 H         1 ****        0.0942 
     55 H55        10.5645    8.4548   -5.2523 H         1 ****        0.3239 
     56 H56        13.1383   11.7395   -6.2382 H         1 ****        0.2986 
     57 H57        14.2281   12.9541   -6.2715 H         1 ****        0.2769 
     58 O58        15.4965   14.8688   -5.7620 O.3       1 ****       -0.3380 
     59 C59        16.3527   15.9252   -5.2869 C.3       1 ****        0.3047 
     60 C60        17.8099   15.7302   -5.7770 C.3       1 ****       -0.2327 
     61 H61        18.4860   16.4465   -5.3084 H         1 ****        0.0753 
     62 H62        18.1764   14.7305   -5.5397 H         1 ****        0.0753 
     63 H63        17.9042   15.8590   -6.8552 H         1 ****        0.0753 
     64 C64        15.8113   17.3186   -5.6942 C.3       1 ****       -0.2327 
     65 H65        15.8631   17.4848   -6.7699 H         1 ****        0.0753 
     66 H66        14.7680   17.4388   -5.3994 H         1 ****        0.0753 
     67 H67        16.3794   18.1194   -5.2192 H         1 ****        0.0753 
     68 C68        16.3105   15.7900   -3.7504 C.3       1 ****       -0.2327 
     69 H69        15.2954   15.9027   -3.3666 H         1 ****        0.0753 
     70 H70        16.6686   14.8121   -3.4249 H         1 ****        0.0753 
     71 H71        16.9300   16.5442   -3.2631 H         1 ****        0.0753 
     72 N72         9.8550    8.2540   -8.0299 N.ar      1 ****       -0.2997 
@<TRIPOS>BOND
     1    1   55 1    
     2    1   22 1    
     3    1   31 am   BACKBONE|DICT|INTERRES
     4    2   29 2    
     5    3    6 ar   
     6    3    9 ar   
     7    3   37 1    
     8    4   56 1    
     9    4   30 am   BACKBONE|DICT|INTERRES
    10    4   34 1    
    11    5   30 2    
    12    6   11 ar   
    13    6   38 1    
    14    7   57 1    
    15    7   32 am   BACKBONE|DICT|INTERRES
    16    7   33 1    
    17    8   31 2    
    18    9   39 1    
    19    9   72 ar   
    20   10   32 2    
    21   11   25 ar   
    22   11   40 1    
    23   12   27 1    
    24   12   28 1    
    25   13   17 ar   
    26   13   24 ar   
    27   13   41 1    
    28   14   18 ar   
    29   14   24 ar   
    30   14   42 1    
    31   15   19 ar   
    32   15   26 ar   
    33   15   43 1    
    34   16   20 ar   
    35   16   26 ar   
    36   16   44 1    
    37   17   27 ar   
    38   17   45 1    
    39   18   27 ar   
    40   18   46 1    
    41   19   28 ar   
    42   19   47 1    
    43   20   28 ar   
    44   20   48 1    
    45   21   24 1    
    46   21   33 1    
    47   21   49 1    
    48   21   50 1    
    49   22   29 1    
    50   22   51 1    
    51   22   52 1    
    52   23   25 1    
    53   23   34 1    
    54   23   53 1    
    55   23   54 1    
    56   25   72 ar   
    57   26   29 1    
    58   30   33 1    
    59   31   34 1    
    60   32   58 1    
    61   33   35 1    
    62   34   36 1    
    63   58   59 1    
    64   59   60 1    
    65   59   64 1    
    66   59   68 1    
    67   60   61 1    
    68   60   62 1    
    69   60   63 1    
    70   64   65 1    
    71   64   66 1    
    72   64   67 1    
    73   68   69 1    
    74   68   70 1    
    75   68   71 1    
@<TRIPOS>SUBSTRUCTURE
     1 ****        1 GROUP             0       ****    0 ROOT    
@<TRIPOS>MOLECULE
Cpd5-3
72   75    1
SMALL
USER_CHARGES


@<TRIPOS>ATOM
      1 N1         10.9466    9.1192   -4.6027 N.am      1 ****       -0.5819 
      2 O2         11.3639    6.4884   -2.5486 O.2       1 ****       -0.4360 
      3 C3          8.8927    6.0569   -7.5790 C.ar      1 ****       -0.1736 
      4 N4         12.6032   11.3370   -7.0146 N.am      1 ****       -0.4289 
      5 O5         12.3682   11.3792   -9.2784 O.2       1 ****       -0.5099 
      6 C6         10.0526    5.6852   -6.8964 C.ar      1 ****       -0.0789 
      7 N7         14.4683   13.4389   -7.1045 N.am      1 ****       -0.3763 
      8 O8         11.9258   11.1612   -4.4410 O.2       1 ****       -0.5158 
      9 C9          8.8307    7.3340   -8.1392 C.ar      1 ****        0.0068 
     10 O10        12.7990   15.0798   -7.1395 O.2       1 ****       -0.5744 
     11 C11        11.1089    6.5918   -6.7911 C.ar      1 ****       -0.1628 
     12 O12        16.8460    8.0822   -5.5118 O.3       1 ****       -0.3030 
     13 C13        15.5321    9.7180   -8.5076 C.ar      1 ****       -0.1185 
     14 C14        16.8412   11.3078   -7.2353 C.ar      1 ****       -0.1185 
     15 C15        13.9820    8.8206   -3.3392 C.ar      1 ****       -0.0703 
     16 C16        13.8299    6.5373   -4.1212 C.ar      1 ****       -0.0703 
     17 C17        15.8979    8.7095   -7.6238 C.ar      1 ****       -0.1314 
     18 C18        17.2121   10.2970   -6.3528 C.ar      1 ****       -0.1314 
     19 C19        15.2145    8.9524   -3.9659 C.ar      1 ****       -0.1479 
     20 C20        15.0645    6.6713   -4.7536 C.ar      1 ****       -0.1479 
     21 C21        15.3373   12.1730   -9.0894 C.3       1 ****       -0.1110 
     22 C22        10.9212    8.7554   -3.1800 C.3       1 ****        0.0042 
     23 C23        12.0876    8.8917   -7.2807 C.3       1 ****       -0.0980 
     24 C24        15.9506   11.0308   -8.2766 C.ar      1 ****       -0.0925 
     25 C25        10.9677    7.8569   -7.3722 C.ar      1 ****        0.0250 
     26 C26        13.2501    7.6366   -3.4753 C.ar      1 ****       -0.1968 
     27 C27        16.6894    9.0128   -6.5131 C.ar      1 ****        0.1208 
     28 C28        15.7314    7.8962   -4.7232 C.ar      1 ****        0.1380 
     29 C29        11.8579    7.5484   -2.9350 C.2       1 ****        0.5399 
     30 C30        12.9232   11.7687   -8.2504 C.2       1 ****        0.5018 
     31 C31        11.5105   10.2240   -5.1265 C.2       1 ****        0.4997 
     32 C32        13.7623   14.5269   -6.6044 C.2       1 ****        0.6108 
     33 C33        14.0929   12.7865   -8.3750 C.3       1 ****        0.0376 
     34 C34        11.6588   10.2693   -6.6693 C.3       1 ****        0.0346 
     35 H35        13.7373   13.5707   -9.0480 H         1 ****        0.0871 
     36 H36        10.6954   10.5762   -7.0790 H         1 ****        0.0942 
     37 H37         8.0637    5.3713   -7.6729 H         1 ****        0.1486 
     38 H38        10.1327    4.7035   -6.4535 H         1 ****        0.1420 
     39 H39         7.9512    7.6567   -8.6766 H         1 ****        0.1638 
     40 H40        12.0117    6.3168   -6.2672 H         1 ****        0.1472 
     41 H41        14.8525    9.4936   -9.3170 H         1 ****        0.1361 
     42 H42        17.1799   12.3185   -7.0592 H         1 ****        0.1361 
     43 H43        13.5802    9.6671   -2.8011 H         1 ****        0.1456 
     44 H44        13.2987    5.5997   -4.2055 H         1 ****        0.1456 
     45 H45        15.4983    7.7142   -7.7527 H         1 ****        0.1431 
     46 H46        17.8304   10.5301   -5.4983 H         1 ****        0.1431 
     47 H47        15.7369    9.8963   -3.9148 H         1 ****        0.1463 
     48 H48        15.4691    5.8466   -5.3219 H         1 ****        0.1463 
     49 H49        16.0942   12.9413   -9.2574 H         1 ****        0.0930 
     50 H50        15.0692   11.8101  -10.0836 H         1 ****        0.0930 
     51 H51        11.2182    9.5786   -2.5279 H         1 ****        0.1060 
     52 H52         9.8961    8.5115   -2.8974 H         1 ****        0.1060 
     53 H53        12.9403    8.4869   -6.7311 H         1 ****        0.0942 
     54 H54        12.4574    9.0110   -8.2986 H         1 ****        0.0942 
     55 H55        10.5757    8.4269   -5.2380 H         1 ****        0.3239 
     56 H56        13.1044   11.7261   -6.2288 H         1 ****        0.2986 
     57 H57        15.2178   13.0372   -6.5596 H         1 ****        0.2769 
     58 O58        14.2953   14.8676   -5.3996 O.3       1 ****       -0.3380 
     59 C59        13.7822   15.8822   -4.5152 C.3       1 ****        0.3047 
     60 C60        12.3423   15.5454   -4.0512 C.3       1 ****       -0.2327 
     61 H61        12.0030   16.2341   -3.2766 H         1 ****        0.0753 
     62 H62        11.6217   15.6006   -4.8671 H         1 ****        0.0753 
     63 H63        12.2850   14.5364   -3.6402 H         1 ****        0.0753 
     64 C64        14.7303   15.8442   -3.2984 C.3       1 ****       -0.2327 
     65 H65        14.7290   14.8631   -2.8206 H         1 ****        0.0753 
     66 H66        15.7607   16.0576   -3.5872 H         1 ****        0.0753 
     67 H67        14.4440   16.5766   -2.5424 H         1 ****        0.0753 
     68 C68        13.8419   17.2858   -5.1683 C.3       1 ****       -0.2327 
     69 H69        14.8413   17.5032   -5.5475 H         1 ****        0.0753 
     70 H70        13.1518   17.3826   -6.0062 H         1 ****        0.0753 
     71 H71        13.5870   18.0679   -4.4520 H         1 ****        0.0753 
     72 N72         9.8463    8.2305   -8.0468 N.ar      1 ****       -0.2997 
@<TRIPOS>BOND
     1    1   55 1    
     2    1   22 1    
     3    1   31 am   BACKBONE|DICT|INTERRES
     4    2   29 2    
     5    3    6 ar   
     6    3    9 ar   
     7    3   37 1    
     8    4   56 1    
     9    4   30 am   BACKBONE|DICT|INTERRES
    10    4   34 1    
    11    5   30 2    
    12    6   11 ar   
    13    6   38 1    
    14    7   57 1    
    15    7   32 am   BACKBONE|DICT|INTERRES
    16    7   33 1    
    17    8   31 2    
    18    9   39 1    
    19    9   72 ar   
    20   10   32 2    
    21   11   25 ar   
    22   11   40 1    
    23   12   27 1    
    24   12   28 1    
    25   13   17 ar   
    26   13   24 ar   
    27   13   41 1    
    28   14   18 ar   
    29   14   24 ar   
    30   14   42 1    
    31   15   19 ar   
    32   15   26 ar   
    33   15   43 1    
    34   16   20 ar   
    35   16   26 ar   
    36   16   44 1    
    37   17   27 ar   
    38   17   45 1    
    39   18   27 ar   
    40   18   46 1    
    41   19   28 ar   
    42   19   47 1    
    43   20   28 ar   
    44   20   48 1    
    45   21   24 1    
    46   21   33 1    
    47   21   49 1    
    48   21   50 1    
    49   22   29 1    
    50   22   51 1    
    51   22   52 1    
    52   23   25 1    
    53   23   34 1    
    54   23   53 1    
    55   23   54 1    
    56   25   72 ar   
    57   26   29 1    
    58   30   33 1    
    59   31   34 1    
    60   32   58 1    
    61   33   35 1    
    62   34   36 1    
    63   58   59 1    
    64   59   60 1    
    65   59   64 1    
    66   59   68 1    
    67   60   61 1    
    68   60   62 1    
    69   60   63 1    
    70   64   65 1    
    71   64   66 1    
    72   64   67 1    
    73   68   69 1    
    74   68   70 1    
    75   68   71 1    
@<TRIPOS>SUBSTRUCTURE
     1 ****        1 GROUP             0       ****    0 ROOT    
@<TRIPOS>MOLECULE
Cpd5-4-MRC
72   75    1
SMALL
USER_CHARGES


@<TRIPOS>ATOM
      1 N1         11.0167    9.4842   -4.3879 N.am      1 ****       -0.5819 
      2 O2         11.8440    7.8789   -1.5719 O.2       1 ****       -0.4360 
      3 C3         10.4668   15.9229   -7.3038 C.ar      1 ****       -0.1736 
      4 N4         12.1598   11.0877   -7.4541 N.am      1 ****       -0.4289 
      5 O5         13.3787   12.9772   -7.0776 O.2       1 ****       -0.5099 
      6 C6         10.0780   15.0537   -8.3248 C.ar      1 ****       -0.0789 
      7 N7         13.1208   12.8106  -10.1370 N.am      1 ****       -0.3763 
      8 O8         11.1607    8.6997   -6.5249 O.2       1 ****       -0.5158 
      9 C9         10.6646   15.4009   -6.0242 C.ar      1 ****        0.0068 
     10 O10        11.3789   11.4020  -10.8208 O.2       1 ****       -0.5744 
     11 C11         9.8984   13.6979   -8.0431 C.ar      1 ****       -0.1628 
     12 O12        16.9177    8.0730   -5.5040 O.3       1 ****       -0.3030 
     13 C13        16.0405    9.6608   -8.6768 C.ar      1 ****       -0.1185 
     14 C14        16.3570   11.3658   -6.9857 C.ar      1 ****       -0.1185 
     15 C15        13.4564    7.1812   -4.7096 C.ar      1 ****       -0.0703 
     16 C16        14.4531    8.2977   -2.8084 C.ar      1 ****       -0.0703 
     17 C17        16.4586    8.6876   -7.7747 C.ar      1 ****       -0.1314 
     18 C18        16.7688   10.3929   -6.0823 C.ar      1 ****       -0.1314 
     19 C19        14.6792    7.2112   -5.3677 C.ar      1 ****       -0.1479 
     20 C20        15.6776    8.3333   -3.4713 C.ar      1 ****       -0.1479 
     21 C21        15.2769   12.0201   -9.1760 C.3       1 ****       -0.1110 
     22 C22        10.7723    8.2180   -3.6831 C.3       1 ****        0.0042 
     23 C23         9.9974   11.7754   -6.3731 C.3       1 ****       -0.0980 
     24 C24        15.9394   10.9919   -8.2649 C.ar      1 ****       -0.0925 
     25 C25        10.1232   13.2511   -6.7361 C.ar      1 ****        0.0250 
     26 C26        13.3219    7.7815   -3.4532 C.ar      1 ****       -0.1968 
     27 C27        16.7644    9.0482   -6.4610 C.ar      1 ****        0.1208 
     28 C28        15.7771    7.8372   -4.7715 C.ar      1 ****        0.1380 
     29 C29        11.9825    7.8541   -2.7957 C.2       1 ****        0.5399 
     30 C30        13.0616   12.0274   -7.7955 C.2       1 ****        0.5018 
     31 C31        11.1835    9.6291   -5.7164 C.2       1 ****        0.4997 
     32 C32        11.9819   12.4767  -10.8640 C.2       1 ****        0.6108 
     33 C33        13.7270   11.8692   -9.1846 C.3       1 ****        0.0376 
     34 C34        11.3756   11.0749   -6.2117 C.3       1 ****        0.0346 
     35 H35        13.5483   10.8504   -9.5408 H         1 ****        0.0871 
     36 H36        11.9441   11.5922   -5.4355 H         1 ****        0.0942 
     37 H37        10.6121   16.9748   -7.5000 H         1 ****        0.1486 
     38 H38         9.9226   15.4278   -9.3257 H         1 ****        0.1420 
     39 H39        10.9658   16.0425   -5.2093 H         1 ****        0.1638 
     40 H40         9.6095   13.0102   -8.8244 H         1 ****        0.1472 
     41 H41        15.7276    9.3696   -9.6692 H         1 ****        0.1361 
     42 H42        16.2884   12.3950   -6.6643 H         1 ****        0.1361 
     43 H43        12.6110    6.7311   -5.2095 H         1 ****        0.1456 
     44 H44        14.3798    8.7348   -1.8225 H         1 ****        0.1456 
     45 H45        16.4589    7.6481   -8.0683 H         1 ****        0.1431 
     46 H46        17.0091   10.6721   -5.0669 H         1 ****        0.1431 
     47 H47        14.7555    6.8080   -6.3667 H         1 ****        0.1463 
     48 H48        16.5283    8.8069   -3.0037 H         1 ****        0.1463 
     49 H49        15.5615   13.0290   -8.8702 H         1 ****        0.0930 
     50 H50        15.6763   11.8992  -10.1844 H         1 ****        0.0930 
     51 H51        10.5599    7.3905   -4.3621 H         1 ****        0.1060 
     52 H52         9.8715    8.3230   -3.0767 H         1 ****        0.1060 
     53 H53         9.4174   11.7034   -5.4504 H         1 ****        0.0942 
     54 H54         9.4052   11.2701   -7.1392 H         1 ****        0.0942 
     55 H55        11.0184   10.3146   -3.8129 H         1 ****        0.3239 
     56 H56        11.9668   10.3343   -8.0985 H         1 ****        0.2986 
     57 H57        13.5219   13.7328  -10.2293 H         1 ****        0.2769 
     58 O58        11.6323   13.5411  -11.6371 O.3       1 ****       -0.3380 
     59 C59        10.5422   13.5679  -12.5795 C.3       1 ****        0.3047 
     60 C60         9.1739   13.3499  -11.8853 C.3       1 ****       -0.2327 
     61 H61         8.3490   13.4821  -12.5866 H         1 ****        0.0753 
     62 H62         9.0757   12.3502  -11.4630 H         1 ****        0.0753 
     63 H63         9.0240   14.0593  -11.0717 H         1 ****        0.0753 
     64 C64        10.5870   14.9907  -13.1748 C.3       1 ****       -0.2327 
     65 H65        10.4592   15.7511  -12.4026 H         1 ****        0.0753 
     66 H66        11.5416   15.1900  -13.6645 H         1 ****        0.0753 
     67 H67         9.8012   15.1416  -13.9162 H         1 ****        0.0753 
     68 C68        10.7569   12.5316  -13.7111 C.3       1 ****       -0.2327 
     69 H69        11.7360   12.6512  -14.1767 H         1 ****        0.0753 
     70 H70        10.6970   11.5057  -13.3476 H         1 ****        0.0753 
     71 H71        10.0065   12.6383  -14.4955 H         1 ****        0.0753 
     72 N72        10.4999   14.0857   -5.7299 N.ar      1 ****       -0.2997 
@<TRIPOS>BOND
     1    1   55 1    
     2    1   22 1    
     3    1   31 am   BACKBONE|DICT|INTERRES
     4    2   29 2    
     5    3    6 ar   
     6    3    9 ar   
     7    3   37 1    
     8    4   56 1    
     9    4   30 am   BACKBONE|DICT|INTERRES
    10    4   34 1    
    11    5   30 2    
    12    6   11 ar   
    13    6   38 1    
    14    7   57 1    
    15    7   32 am   BACKBONE|DICT|INTERRES
    16    7   33 1    
    17    8   31 2    
    18    9   39 1    
    19    9   72 ar   
    20   10   32 2    
    21   11   25 ar   
    22   11   40 1    
    23   12   27 1    
    24   12   28 1    
    25   13   17 ar   
    26   13   24 ar   
    27   13   41 1    
    28   14   18 ar   
    29   14   24 ar   
    30   14   42 1    
    31   15   19 ar   
    32   15   26 ar   
    33   15   43 1    
    34   16   20 ar   
    35   16   26 ar   
    36   16   44 1    
    37   17   27 ar   
    38   17   45 1    
    39   18   27 ar   
    40   18   46 1    
    41   19   28 ar   
    42   19   47 1    
    43   20   28 ar   
    44   20   48 1    
    45   21   24 1    
    46   21   33 1    
    47   21   49 1    
    48   21   50 1    
    49   22   29 1    
    50   22   51 1    
    51   22   52 1    
    52   23   25 1    
    53   23   34 1    
    54   23   53 1    
    55   23   54 1    
    56   25   72 ar   
    57   26   29 1    
    58   30   33 1    
    59   31   34 1    
    60   32   58 1    
    61   33   35 1    
    62   34   36 1    
    63   58   59 1    
    64   59   60 1    
    65   59   64 1    
    66   59   68 1    
    67   60   61 1    
    68   60   62 1    
    69   60   63 1    
    70   64   65 1    
    71   64   66 1    
    72   64   67 1    
    73   68   69 1    
    74   68   70 1    
    75   68   71 1    
@<TRIPOS>SUBSTRUCTURE
     1 ****        1 GROUP             0       ****    0 ROOT    
@<TRIPOS>MOLECULE
Cpd5-5
72   75    1
SMALL
USER_CHARGES


@<TRIPOS>ATOM
      1 N1         10.6796    9.3938   -4.5720 N.am      1 ****       -0.5819 
      2 O2         11.9017    8.4400   -1.7407 O.2       1 ****       -0.4360 
      3 C3          8.4122   14.6650   -9.0126 C.ar      1 ****       -0.1736 
      4 N4         11.9741   11.8838   -6.6969 N.am      1 ****       -0.4289 
      5 O5         12.6649   10.9686   -8.6594 O.2       1 ****       -0.5099 
      6 C6          7.8861   14.2073   -7.8028 C.ar      1 ****       -0.0789 
      7 N7         14.4565   13.4144   -6.5119 N.am      1 ****       -0.3763 
      8 O8         11.9221    8.9255   -6.4294 O.2       1 ****       -0.5158 
      9 C9          9.3491   13.8693   -9.6745 C.ar      1 ****        0.0068 
     10 O10        14.4620   11.5634   -5.0650 O.2       1 ****       -0.5744 
     11 C11         8.3069   12.9785   -7.2902 C.ar      1 ****       -0.1628 
     12 O12        16.9507    7.8385   -5.6566 O.3       1 ****       -0.3030 
     13 C13        15.5969    9.7695   -8.4318 C.ar      1 ****       -0.1185 
     14 C14        16.9309   11.2164   -7.0231 C.ar      1 ****       -0.1185 
     15 C15        13.5549    7.0088   -4.5951 C.ar      1 ****       -0.0703 
     16 C16        14.4784    8.6598   -3.0876 C.ar      1 ****       -0.0703 
     17 C17        16.0260    8.6666   -7.7055 C.ar      1 ****       -0.1314 
     18 C18        17.3490   10.1140   -6.2841 C.ar      1 ****       -0.1314 
     19 C19        14.7832    6.9080   -5.2389 C.ar      1 ****       -0.1479 
     20 C20        15.7056    8.5635   -3.7370 C.ar      1 ****       -0.1479 
     21 C21        15.2767   12.2667   -8.6307 C.3       1 ****       -0.1110 
     22 C22        10.7945    8.1283   -3.8363 C.3       1 ****        0.0042 
     23 C23         9.7580   10.8975   -7.4971 C.3       1 ****       -0.0980 
     24 C24        15.9800   11.0517   -8.0341 C.ar      1 ****       -0.0925 
     25 C25         9.2510   12.2406   -8.0126 C.ar      1 ****        0.0250 
     26 C26        13.3777    7.9333   -3.5582 C.ar      1 ****       -0.1968 
     27 C27        16.8294    8.8520   -6.5775 C.ar      1 ****        0.1208 
     28 C28        15.8412    7.7298   -4.8490 C.ar      1 ****        0.1380 
     29 C29        12.0395    8.1198   -2.9224 C.2       1 ****        0.5399 
     30 C30        12.8241   11.7701   -7.7388 C.2       1 ****        0.5018 
     31 C31        11.2070    9.6855   -5.7768 C.2       1 ****        0.4997 
     32 C32        14.5823   12.7722   -5.2786 C.2       1 ****        0.6108 
     33 C33        14.0565   12.7322   -7.7675 C.3       1 ****        0.0376 
     34 C34        10.8066   11.0565   -6.3609 C.3       1 ****        0.0346 
     35 H35        13.6354   13.5650   -8.3324 H         1 ****        0.0871 
     36 H36        10.3188   11.6091   -5.5557 H         1 ****        0.0942 
     37 H37         8.1011   15.6127   -9.4267 H         1 ****        0.1486 
     38 H38         7.1597   14.8001   -7.2667 H         1 ****        0.1420 
     39 H39         9.7780   14.1894  -10.6126 H         1 ****        0.1638 
     40 H40         7.9123   12.6115   -6.3538 H         1 ****        0.1472 
     41 H41        14.8910    9.6295   -9.2372 H         1 ****        0.1361 
     42 H42        17.2531   12.2050   -6.7299 H         1 ****        0.1361 
     43 H43        12.7408    6.3934   -4.9478 H         1 ****        0.1456 
     44 H44        14.3775    9.3526   -2.2640 H         1 ****        0.1456 
     45 H45        15.6374    7.6880   -7.9462 H         1 ****        0.1431 
     46 H46        17.9796   10.2572   -5.4189 H         1 ****        0.1431 
     47 H47        14.8879    6.2523   -6.0907 H         1 ****        0.1463 
     48 H48        16.5274    9.1916   -3.4272 H         1 ****        0.1463 
     49 H49        15.9958   13.0803   -8.7404 H         1 ****        0.0930 
     50 H50        14.9558   12.0320   -9.6474 H         1 ****        0.0930 
     51 H51        10.7858    7.2713   -4.5099 H         1 ****        0.1060 
     52 H52         9.8965    8.0005   -3.2304 H         1 ****        0.1060 
     53 H53         8.8967   10.3319   -7.1356 H         1 ****        0.0942 
     54 H54        10.1620   10.3124   -8.3255 H         1 ****        0.0942 
     55 H55        10.0930   10.0917   -4.1375 H         1 ****        0.3239 
     56 H56        12.1821   12.5933   -6.0089 H         1 ****        0.2986 
     57 H57        14.5992   14.4133   -6.5541 H         1 ****        0.2769 
     58 O58        14.8775   13.7024   -4.3315 O.3       1 ****       -0.3380 
     59 C59        15.0987   13.4248   -2.9345 C.3       1 ****        0.3047 
     60 C60        15.3652   14.8078   -2.3050 C.3       1 ****       -0.2327 
     61 H61        15.5535   14.7322   -1.2331 H         1 ****        0.0753 
     62 H62        16.2325   15.2925   -2.7560 H         1 ****        0.0753 
     63 H63        14.5165   15.4799   -2.4416 H         1 ****        0.0753 
     64 C64        13.8454   12.7952   -2.2731 C.3       1 ****       -0.2327 
     65 H65        12.9547   13.3955   -2.4629 H         1 ****        0.0753 
     66 H66        13.6397   11.7906   -2.6422 H         1 ****        0.0753 
     67 H67        13.9636   12.7187   -1.1915 H         1 ****        0.0753 
     68 C68        16.3423   12.5227   -2.7353 C.3       1 ****       -0.2327 
     69 H69        16.1926   11.5211   -3.1357 H         1 ****        0.0753 
     70 H70        17.2181   12.9392   -3.2346 H         1 ****        0.0753 
     71 H71        16.5887   12.4121   -1.6786 H         1 ****        0.0753 
     72 N72         9.7708   12.6716   -9.1939 N.ar      1 ****       -0.2997 
@<TRIPOS>BOND
     1    1   55 1    
     2    1   22 1    
     3    1   31 am   BACKBONE|DICT|INTERRES
     4    2   29 2    
     5    3    6 ar   
     6    3    9 ar   
     7    3   37 1    
     8    4   56 1    
     9    4   30 am   BACKBONE|DICT|INTERRES
    10    4   34 1    
    11    5   30 2    
    12    6   11 ar   
    13    6   38 1    
    14    7   57 1    
    15    7   32 am   BACKBONE|DICT|INTERRES
    16    7   33 1    
    17    8   31 2    
    18    9   39 1    
    19    9   72 ar   
    20   10   32 2    
    21   11   25 ar   
    22   11   40 1    
    23   12   27 1    
    24   12   28 1    
    25   13   17 ar   
    26   13   24 ar   
    27   13   41 1    
    28   14   18 ar   
    29   14   24 ar   
    30   14   42 1    
    31   15   19 ar   
    32   15   26 ar   
    33   15   43 1    
    34   16   20 ar   
    35   16   26 ar   
    36   16   44 1    
    37   17   27 ar   
    38   17   45 1    
    39   18   27 ar   
    40   18   46 1    
    41   19   28 ar   
    42   19   47 1    
    43   20   28 ar   
    44   20   48 1    
    45   21   24 1    
    46   21   33 1    
    47   21   49 1    
    48   21   50 1    
    49   22   29 1    
    50   22   51 1    
    51   22   52 1    
    52   23   25 1    
    53   23   34 1    
    54   23   53 1    
    55   23   54 1    
    56   25   72 ar   
    57   26   29 1    
    58   30   33 1    
    59   31   34 1    
    60   32   58 1    
    61   33   35 1    
    62   34   36 1    
    63   58   59 1    
    64   59   60 1    
    65   59   64 1    
    66   59   68 1    
    67   60   61 1    
    68   60   62 1    
    69   60   63 1    
    70   64   65 1    
    71   64   66 1    
    72   64   67 1    
    73   68   69 1    
    74   68   70 1    
    75   68   71 1    
@<TRIPOS>SUBSTRUCTURE
     1 ****        1 GROUP             0       ****    0 ROOT    
@<TRIPOS>MOLECULE
Cpd5-6
72   75    1
SMALL
USER_CHARGES


@<TRIPOS>ATOM
      1 N1         11.6206    9.9734   -4.4804 N.am      1 ****       -0.5819 
      2 O2         11.3086    7.0934   -2.7018 O.2       1 ****       -0.4360 
      3 C3          9.4733    5.3586   -8.0157 C.ar      1 ****       -0.1736 
      4 N4         12.3810   11.0886   -6.9088 N.am      1 ****       -0.4289 
      5 O5         12.5300   11.5032   -9.1379 O.2       1 ****       -0.5099 
      6 C6          9.3418    6.4283   -8.9040 C.ar      1 ****       -0.0789 
      7 N7         14.3636   12.9882   -6.3278 N.am      1 ****       -0.3763 
      8 O8          9.7791    9.0869   -5.4723 O.2       1 ****       -0.5158 
      9 C9         10.4626    5.4268   -7.0329 C.ar      1 ****        0.0068 
     10 O10        12.6489   14.5300   -5.9233 O.2       1 ****       -0.5744 
     11 C11        10.1933    7.5289   -8.7873 C.ar      1 ****       -0.1628 
     12 O12        16.9697    7.8972   -5.6520 O.3       1 ****       -0.3030 
     13 C13        15.6063    9.8774   -8.3940 C.ar      1 ****       -0.1185 
     14 C14        16.9935   11.2861   -6.9967 C.ar      1 ****       -0.1185 
     15 C15        13.7511    6.7842   -4.3081 C.ar      1 ****       -0.0703 
     16 C16        14.3811    8.8707   -3.2547 C.ar      1 ****       -0.0703 
     17 C17        16.0109    8.7611   -7.6711 C.ar      1 ****       -0.1314 
     18 C18        17.4083   10.1677   -6.2804 C.ar      1 ****       -0.1314 
     19 C19        14.9801    6.7451   -4.9645 C.ar      1 ****       -0.1479 
     20 C20        15.6124    8.8199   -3.8937 C.ar      1 ****       -0.1479 
     21 C21        15.3368   12.3887   -8.5664 C.3       1 ****       -0.1110 
     22 C22        11.4015    9.4573   -3.1208 C.3       1 ****        0.0042 
     23 C23        12.1080    8.6998   -7.5835 C.3       1 ****       -0.0980 
     24 C24        16.0314   11.1489   -8.0012 C.ar      1 ****       -0.0925 
     25 C25        11.1575    7.5219   -7.7739 C.ar      1 ****        0.0250 
     26 C26        13.4188    7.8903   -3.5163 C.ar      1 ****       -0.1968 
     27 C27        16.8496    8.9200   -6.5651 C.ar      1 ****        0.1208 
     28 C28        15.8852    7.7961   -4.8068 C.ar      1 ****        0.1380 
     29 C29        12.0336    8.0498   -2.9784 C.2       1 ****        0.5399 
     30 C30        12.8987   11.7192   -7.9827 C.2       1 ****        0.5018 
     31 C31        10.8698    9.6526   -5.5518 C.2       1 ****        0.4997 
     32 C32        13.6010   13.8453   -5.5435 C.2       1 ****        0.6108 
     33 C33        14.0501   12.7416   -7.7508 C.3       1 ****        0.0376 
     34 C34        11.4429    9.9634   -6.9539 C.3       1 ****        0.0346 
     35 H35        13.6913   13.6828   -8.1740 H         1 ****        0.0871 
     36 H36        10.6019   10.2700   -7.5790 H         1 ****        0.0942 
     37 H37         8.8244    4.4983   -8.0876 H         1 ****        0.1486 
     38 H38         8.5858    6.4052   -9.6749 H         1 ****        0.1420 
     39 H39        10.5949    4.6195   -6.3278 H         1 ****        0.1638 
     40 H40        10.1029    8.3669   -9.4631 H         1 ****        0.1472 
     41 H41        14.8779    9.7618   -9.1832 H         1 ****        0.1361 
     42 H42        17.3396   12.2655   -6.6995 H         1 ****        0.1361 
     43 H43        13.0311    6.0004   -4.4972 H         1 ****        0.1456 
     44 H44        14.1640    9.7126   -2.6126 H         1 ****        0.1456 
     45 H45        15.5845    7.7948   -7.8981 H         1 ****        0.1431 
     46 H46        18.0643   10.2898   -5.4310 H         1 ****        0.1431 
     47 H47        15.1917    5.9452   -5.6588 H         1 ****        0.1463 
     48 H48        16.3165    9.6256   -3.7469 H         1 ****        0.1463 
     49 H49        16.0316   13.2302   -8.5422 H         1 ****        0.0930 
     50 H50        15.1100   12.2355   -9.6232 H         1 ****        0.0930 
     51 H51        11.8546   10.1402   -2.4021 H         1 ****        0.1060 
     52 H52        10.3389    9.4334   -2.8698 H         1 ****        0.1060 
     53 H53        12.9708    8.3964   -6.9854 H         1 ****        0.0942 
     54 H54        12.5190    8.9335   -8.5659 H         1 ****        0.0942 
     55 H55        12.4809   10.4813   -4.6281 H         1 ****        0.3239 
     56 H56        12.7206   11.3326   -5.9896 H         1 ****        0.2986 
     57 H57        15.0992   12.4453   -5.8989 H         1 ****        0.2769 
     58 O58        14.0504   13.7631   -4.2622 O.3       1 ****       -0.3380 
     59 C59        13.4133   14.3525   -3.1133 C.3       1 ****        0.3047 
     60 C60        11.9801   13.7945   -2.9194 C.3       1 ****       -0.2327 
     61 H61        11.5453   14.1334   -1.9781 H         1 ****        0.0753 
     62 H62        11.3040   14.1063   -3.7154 H         1 ****        0.0753 
     63 H63        11.9786   12.7037   -2.9065 H         1 ****        0.0753 
     64 C64        14.2924   13.9138   -1.9236 C.3       1 ****       -0.2327 
     65 H65        14.3382   12.8267   -1.8395 H         1 ****        0.0753 
     66 H66        15.3183   14.2695   -2.0316 H         1 ****        0.0753 
     67 H67        13.9102   14.2995   -0.9775 H         1 ****        0.0753 
     68 C68        13.4014   15.8988   -3.2042 C.3       1 ****       -0.2327 
     69 H69        14.4005   16.2911   -3.3979 H         1 ****        0.0753 
     70 H70        12.7529   16.2617   -4.0013 H         1 ****        0.0753 
     71 H71        13.0483   16.3479   -2.2751 H         1 ****        0.0753 
     72 N72        11.3009    6.4865   -6.9029 N.ar      1 ****       -0.2997 
@<TRIPOS>BOND
     1    1   55 1    
     2    1   22 1    
     3    1   31 am   BACKBONE|DICT|INTERRES
     4    2   29 2    
     5    3    6 ar   
     6    3    9 ar   
     7    3   37 1    
     8    4   56 1    
     9    4   30 am   BACKBONE|DICT|INTERRES
    10    4   34 1    
    11    5   30 2    
    12    6   11 ar   
    13    6   38 1    
    14    7   57 1    
    15    7   32 am   BACKBONE|DICT|INTERRES
    16    7   33 1    
    17    8   31 2    
    18    9   39 1    
    19    9   72 ar   
    20   10   32 2    
    21   11   25 ar   
    22   11   40 1    
    23   12   27 1    
    24   12   28 1    
    25   13   17 ar   
    26   13   24 ar   
    27   13   41 1    
    28   14   18 ar   
    29   14   24 ar   
    30   14   42 1    
    31   15   19 ar   
    32   15   26 ar   
    33   15   43 1    
    34   16   20 ar   
    35   16   26 ar   
    36   16   44 1    
    37   17   27 ar   
    38   17   45 1    
    39   18   27 ar   
    40   18   46 1    
    41   19   28 ar   
    42   19   47 1    
    43   20   28 ar   
    44   20   48 1    
    45   21   24 1    
    46   21   33 1    
    47   21   49 1    
    48   21   50 1    
    49   22   29 1    
    50   22   51 1    
    51   22   52 1    
    52   23   25 1    
    53   23   34 1    
    54   23   53 1    
    55   23   54 1    
    56   25   72 ar   
    57   26   29 1    
    58   30   33 1    
    59   31   34 1    
    60   32   58 1    
    61   33   35 1    
    62   34   36 1    
    63   58   59 1    
    64   59   60 1    
    65   59   64 1    
    66   59   68 1    
    67   60   61 1    
    68   60   62 1    
    69   60   63 1    
    70   64   65 1    
    71   64   66 1    
    72   64   67 1    
    73   68   69 1    
    74   68   70 1    
    75   68   71 1    
@<TRIPOS>SUBSTRUCTURE
     1 ****        1 GROUP             0       ****    0 ROOT    
@<TRIPOS>MOLECULE
Cpd5-7
72   75    1
SMALL
USER_CHARGES


@<TRIPOS>ATOM
      1 N1         10.8122    9.4345   -4.5049 N.am      1 ****       -0.5819 
      2 O2         11.7714    8.0527   -1.7162 O.2       1 ****       -0.4360 
      3 C3          6.2329   10.4202   -5.0308 C.ar      1 ****       -0.1736 
      4 N4         12.3051   11.9498   -6.6394 N.am      1 ****       -0.4289 
      5 O5         12.5279   10.9994   -8.6961 O.2       1 ****       -0.5099 
      6 C6          6.7387    9.4951   -5.9462 C.ar      1 ****       -0.0789 
      7 N7         14.5118   13.6473   -7.0925 N.am      1 ****       -0.3763 
      8 O8         12.0882    9.0520   -6.3611 O.2       1 ****       -0.5158 
      9 C9          6.9397   11.6062   -4.8232 C.ar      1 ****        0.0068 
     10 O10        12.9422   15.3609   -7.3861 O.2       1 ****       -0.5744 
     11 C11         7.9265    9.7765   -6.6241 C.ar      1 ****       -0.1628 
     12 O12        16.9255    7.9732   -5.5509 O.3       1 ****       -0.3030 
     13 C13        15.6495    9.6825   -8.5165 C.ar      1 ****       -0.1185 
     14 C14        16.6805   11.2993   -7.0387 C.ar      1 ****       -0.1185 
     15 C15        14.3810    8.5503   -2.9871 C.ar      1 ****       -0.0703 
     16 C16        13.5558    6.9413   -4.5974 C.ar      1 ****       -0.0703 
     17 C17        16.0817    8.6522   -7.6904 C.ar      1 ****       -0.1314 
     18 C18        17.1026   10.2692   -6.2045 C.ar      1 ****       -0.1314 
     19 C19        15.6192    8.5490   -3.6233 C.ar      1 ****       -0.1479 
     20 C20        14.7966    6.9293   -5.2227 C.ar      1 ****       -0.1479 
     21 C21        15.2497   12.1370   -8.9594 C.3       1 ****       -0.1110 
     22 C22        10.7837    8.0976   -3.8976 C.3       1 ****        0.0042 
     23 C23         9.8903   11.3438   -7.0494 C.3       1 ****       -0.0980 
     24 C24        15.9000   11.0097   -8.1614 C.ar      1 ****       -0.0925 
     25 C25         8.5767   10.9872   -6.3594 C.ar      1 ****        0.0250 
     26 C26        13.3247    7.8033   -3.5199 C.ar      1 ****       -0.1968 
     27 C27        16.7512    8.9512   -6.5011 C.ar      1 ****        0.1208 
     28 C28        15.8075    7.7805   -4.7741 C.ar      1 ****        0.1380 
     29 C29        11.9642    7.9015   -2.9232 C.2       1 ****        0.5399 
     30 C30        12.8846   11.8229   -7.8528 C.2       1 ****        0.5018 
     31 C31        11.4101    9.7993   -5.6568 C.2       1 ****        0.4997 
     32 C32        13.8970   14.8580   -6.7896 C.2       1 ****        0.6108 
     33 C33        14.0522   12.7942   -8.2075 C.3       1 ****        0.0376 
     34 C34        11.1262   11.2508   -6.1073 C.3       1 ****        0.0346 
     35 H35        13.6259   13.4624   -8.9596 H         1 ****        0.0871 
     36 H36        10.8937   11.8209   -5.2059 H         1 ****        0.0942 
     37 H37         5.3159   10.2226   -4.4956 H         1 ****        0.1486 
     38 H38         6.2158    8.5678   -6.1277 H         1 ****        0.1420 
     39 H39         6.5795   12.3455   -4.1230 H         1 ****        0.1638 
     40 H40         8.3340    9.0678   -7.3304 H         1 ****        0.1472 
     41 H41        15.0598    9.4489   -9.3911 H         1 ****        0.1361 
     42 H42        16.8985   12.3224   -6.7697 H         1 ****        0.1361 
     43 H43        14.2316    9.1925   -2.1304 H         1 ****        0.1456 
     44 H44        12.7697    6.3155   -4.9946 H         1 ****        0.1456 
     45 H45        15.8161    7.6326   -7.9270 H         1 ****        0.1431 
     46 H46        17.6264   10.5004   -5.2886 H         1 ****        0.1431 
     47 H47        16.4052    9.1997   -3.2690 H         1 ****        0.1463 
     48 H48        14.9448    6.3213   -6.1029 H         1 ****        0.1463 
     49 H49        16.0076   12.8828   -9.2053 H         1 ****        0.0930 
     50 H50        14.9108   11.7485   -9.9219 H         1 ****        0.0930 
     51 H51        10.7667    7.3117   -4.6538 H         1 ****        0.1060 
     52 H52         9.8397    7.9793   -3.3640 H         1 ****        0.1060 
     53 H53        10.0245   10.7152   -7.9314 H         1 ****        0.0942 
     54 H54         9.7984   12.3605   -7.4366 H         1 ****        0.0942 
     55 H55        10.2646   10.1339   -4.0244 H         1 ****        0.3239 
     56 H56        12.6834   12.6487   -6.0162 H         1 ****        0.2986 
     57 H57        15.2527   13.3033   -6.4988 H         1 ****        0.2769 
     58 O58        14.5156   15.3959   -5.7032 O.3       1 ****       -0.3380 
     59 C59        14.1431   16.6267   -5.0531 C.3       1 ****        0.3047 
     60 C60        14.2937   17.8384   -6.0071 C.3       1 ****       -0.2327 
     61 H61        14.1466   18.7807   -5.4779 H         1 ****        0.0753 
     62 H62        15.2875   17.8672   -6.4558 H         1 ****        0.0753 
     63 H63        13.5724   17.8146   -6.8238 H         1 ****        0.0753 
     64 C64        12.7057   16.5475   -4.4796 C.3       1 ****       -0.2327 
     65 H65        11.9499   16.4920   -5.2629 H         1 ****        0.0753 
     66 H66        12.5797   15.6668   -3.8484 H         1 ****        0.0753 
     67 H67        12.4723   17.4222   -3.8710 H         1 ****        0.0753 
     68 C68        15.1482   16.7654   -3.8906 C.3       1 ****       -0.2327 
     69 H69        15.0847   15.9200   -3.2036 H         1 ****        0.0753 
     70 H70        16.1765   16.8058   -4.2533 H         1 ****        0.0753 
     71 H71        14.9700   17.6721   -3.3108 H         1 ****        0.0753 
     72 N72         8.0967   11.8989   -5.4708 N.ar      1 ****       -0.2997 
@<TRIPOS>BOND
     1    1   55 1    
     2    1   22 1    
     3    1   31 am   BACKBONE|DICT|INTERRES
     4    2   29 2    
     5    3    6 ar   
     6    3    9 ar   
     7    3   37 1    
     8    4   56 1    
     9    4   30 am   BACKBONE|DICT|INTERRES
    10    4   34 1    
    11    5   30 2    
    12    6   11 ar   
    13    6   38 1    
    14    7   57 1    
    15    7   32 am   BACKBONE|DICT|INTERRES
    16    7   33 1    
    17    8   31 2    
    18    9   39 1    
    19    9   72 ar   
    20   10   32 2    
    21   11   25 ar   
    22   11   40 1    
    23   12   27 1    
    24   12   28 1    
    25   13   17 ar   
    26   13   24 ar   
    27   13   41 1    
    28   14   18 ar   
    29   14   24 ar   
    30   14   42 1    
    31   15   19 ar   
    32   15   26 ar   
    33   15   43 1    
    34   16   20 ar   
    35   16   26 ar   
    36   16   44 1    
    37   17   27 ar   
    38   17   45 1    
    39   18   27 ar   
    40   18   46 1    
    41   19   28 ar   
    42   19   47 1    
    43   20   28 ar   
    44   20   48 1    
    45   21   24 1    
    46   21   33 1    
    47   21   49 1    
    48   21   50 1    
    49   22   29 1    
    50   22   51 1    
    51   22   52 1    
    52   23   25 1    
    53   23   34 1    
    54   23   53 1    
    55   23   54 1    
    56   25   72 ar   
    57   26   29 1    
    58   30   33 1    
    59   31   34 1    
    60   32   58 1    
    61   33   35 1    
    62   34   36 1    
    63   58   59 1    
    64   59   60 1    
    65   59   64 1    
    66   59   68 1    
    67   60   61 1    
    68   60   62 1    
    69   60   63 1    
    70   64   65 1    
    71   64   66 1    
    72   64   67 1    
    73   68   69 1    
    74   68   70 1    
    75   68   71 1    
@<TRIPOS>SUBSTRUCTURE
     1 ****        1 GROUP             0       ****    0 ROOT    
@<TRIPOS>MOLECULE
Cpd5-8-MEC
72   75    1
SMALL
USER_CHARGES


@<TRIPOS>ATOM
      1 N1         11.1191    9.5036   -4.3635 N.am      1 ****       -0.5819 
      2 O2         11.8392    7.8072   -1.5546 O.2       1 ****       -0.4360 
      3 C3          8.3975   12.7545   -2.5507 C.ar      1 ****       -0.1736 
      4 N4         12.2890   11.0426   -7.4432 N.am      1 ****       -0.4289 
      5 O5         13.1673   13.1424   -7.3736 O.2       1 ****       -0.5099 
      6 C6          7.7358   11.9142   -3.4484 C.ar      1 ****       -0.0789 
      7 N7         13.1275   12.7171  -10.2729 N.am      1 ****       -0.3763 
      8 O8         11.0811    8.7476   -6.5146 O.2       1 ****       -0.5158 
      9 C9          9.6255   13.2995   -2.9303 C.ar      1 ****        0.0068 
     10 O10        13.9073   11.5908  -12.1705 O.2       1 ****       -0.5744 
     11 C11         8.3131   11.6425   -4.6904 C.ar      1 ****       -0.1628 
     12 O12        16.9190    8.0865   -5.4738 O.3       1 ****       -0.3030 
     13 C13        16.0839    9.6771   -8.6578 C.ar      1 ****       -0.1185 
     14 C14        16.2496   11.3710   -6.9342 C.ar      1 ****       -0.1185 
     15 C15        13.4578    7.1795   -4.7034 C.ar      1 ****       -0.0703 
     16 C16        14.4677    8.2133   -2.7619 C.ar      1 ****       -0.0703 
     17 C17        16.5091    8.7112   -7.7507 C.ar      1 ****       -0.1314 
     18 C18        16.6700   10.4055   -6.0269 C.ar      1 ****       -0.1314 
     19 C19        14.6797    7.2230   -5.3616 C.ar      1 ****       -0.1479 
     20 C20        15.6915    8.2629   -3.4252 C.ar      1 ****       -0.1479 
     21 C21        15.2650   12.0140   -9.1718 C.3       1 ****       -0.1110 
     22 C22        10.8000    8.2518   -3.6637 C.3       1 ****        0.0042 
     23 C23        10.2441   11.9491   -6.3250 C.3       1 ****       -0.0980 
     24 C24        15.9086   10.9974   -8.2357 C.ar      1 ****       -0.0925 
     25 C25         9.5479   12.2259   -4.9955 C.ar      1 ****        0.0250 
     26 C26        13.3308    7.7371   -3.4268 C.ar      1 ****       -0.1968 
     27 C27        16.7481    9.0675   -6.4224 C.ar      1 ****        0.1208 
     28 C28        15.7827    7.8201   -4.7450 C.ar      1 ****        0.1380 
     29 C29        11.9885    7.8203   -2.7773 C.2       1 ****        0.5399 
     30 C30        13.0172   12.0588   -7.9430 C.2       1 ****        0.5018 
     31 C31        11.2304    9.6571   -5.6971 C.2       1 ****        0.4997 
     32 C32        13.3079   12.5276  -11.6379 C.2       1 ****        0.6108 
     33 C33        13.7214   11.7959   -9.2963 C.3       1 ****        0.0376 
     34 C34        11.5343   11.0894   -6.1862 C.3       1 ****        0.0346 
     35 H35        13.5237   10.7682   -9.6143 H         1 ****        0.0871 
     36 H36        12.1903   11.5484   -5.4430 H         1 ****        0.0942 
     37 H37         7.9690   12.9776   -1.5848 H         1 ****        0.1486 
     38 H38         6.7849   11.4760   -3.1834 H         1 ****        0.1420 
     39 H39        10.1667   13.9536   -2.2628 H         1 ****        0.1638 
     40 H40         7.8164   10.9889   -5.3926 H         1 ****        0.1472 
     41 H41        15.8298    9.3874   -9.6671 H         1 ****        0.1361 
     42 H42        16.1229   12.3922   -6.6048 H         1 ****        0.1361 
     43 H43        12.6060    6.7612   -5.2200 H         1 ****        0.1456 
     44 H44        14.3987    8.6163   -1.7613 H         1 ****        0.1456 
     45 H45        16.5712    7.6771   -8.0568 H         1 ****        0.1431 
     46 H46        16.8572   10.6818   -4.9995 H         1 ****        0.1431 
     47 H47        14.7502    6.8599   -6.3763 H         1 ****        0.1463 
     48 H48        16.5467    8.7126   -2.9423 H         1 ****        0.1463 
     49 H49        15.4909   13.0296   -8.8394 H         1 ****        0.0930 
     50 H50        15.7482   11.9221  -10.1456 H         1 ****        0.0930 
     51 H51        10.5474    7.4382   -4.3458 H         1 ****        0.1060 
     52 H52         9.9059    8.4081   -3.0583 H         1 ****        0.1060 
     53 H53         9.5492   11.4777   -7.0232 H         1 ****        0.0942 
     54 H54        10.4802   12.9152   -6.7743 H         1 ****        0.0942 
     55 H55        11.2215   10.3209   -3.7790 H         1 ****        0.3239 
     56 H56        12.2279   10.1764   -7.9591 H         1 ****        0.2986 
     57 H57        12.6938   13.5658   -9.9388 H         1 ****        0.2769 
     58 O58        12.7095   13.5555  -12.3006 O.3       1 ****       -0.3380 
     59 C59        12.6801   13.7240  -13.7314 C.3       1 ****        0.3047 
     60 C60        11.9331   12.5553  -14.4220 C.3       1 ****       -0.2327 
     61 H61        11.7905   12.7488  -15.4860 H         1 ****        0.0753 
     62 H62        12.4728   11.6120  -14.3383 H         1 ****        0.0753 
     63 H63        10.9466   12.4017  -13.9827 H         1 ****        0.0753 
     64 C64        11.8903   15.0317  -13.9475 C.3       1 ****       -0.2327 
     65 H65        10.8818   14.9627  -13.5367 H         1 ****        0.0753 
     66 H66        12.3765   15.8782  -13.4600 H         1 ****        0.0753 
     67 H67        11.7959   15.2743  -15.0069 H         1 ****        0.0753 
     68 C68        14.1083   13.8879  -14.3099 C.3       1 ****       -0.2327 
     69 H69        14.6571   14.6751  -13.7915 H         1 ****        0.0753 
     70 H70        14.6972   12.9749  -14.2236 H         1 ****        0.0753 
     71 H71        14.0801   14.1516  -15.3680 H         1 ****        0.0753 
     72 N72        10.2045   13.0478   -4.1324 N.ar      1 ****       -0.2997 
@<TRIPOS>BOND
     1    1   55 1    
     2    1   22 1    
     3    1   31 am   BACKBONE|DICT|INTERRES
     4    2   29 2    
     5    3    6 ar   
     6    3    9 ar   
     7    3   37 1    
     8    4   56 1    
     9    4   30 am   BACKBONE|DICT|INTERRES
    10    4   34 1    
    11    5   30 2    
    12    6   11 ar   
    13    6   38 1    
    14    7   57 1    
    15    7   32 am   BACKBONE|DICT|INTERRES
    16    7   33 1    
    17    8   31 2    
    18    9   39 1    
    19    9   72 ar   
    20   10   32 2    
    21   11   25 ar   
    22   11   40 1    
    23   12   27 1    
    24   12   28 1    
    25   13   17 ar   
    26   13   24 ar   
    27   13   41 1    
    28   14   18 ar   
    29   14   24 ar   
    30   14   42 1    
    31   15   19 ar   
    32   15   26 ar   
    33   15   43 1    
    34   16   20 ar   
    35   16   26 ar   
    36   16   44 1    
    37   17   27 ar   
    38   17   45 1    
    39   18   27 ar   
    40   18   46 1    
    41   19   28 ar   
    42   19   47 1    
    43   20   28 ar   
    44   20   48 1    
    45   21   24 1    
    46   21   33 1    
    47   21   49 1    
    48   21   50 1    
    49   22   29 1    
    50   22   51 1    
    51   22   52 1    
    52   23   25 1    
    53   23   34 1    
    54   23   53 1    
    55   23   54 1    
    56   25   72 ar   
    57   26   29 1    
    58   30   33 1    
    59   31   34 1    
    60   32   58 1    
    61   33   35 1    
    62   34   36 1    
    63   58   59 1    
    64   59   60 1    
    65   59   64 1    
    66   59   68 1    
    67   60   61 1    
    68   60   62 1    
    69   60   63 1    
    70   64   65 1    
    71   64   66 1    
    72   64   67 1    
    73   68   69 1    
    74   68   70 1    
    75   68   71 1    
@<TRIPOS>SUBSTRUCTURE
     1 ****        1 GROUP             0       ****    0 ROOT    
@<TRIPOS>MOLECULE
Cpd5-9
72   75    1
SMALL
USER_CHARGES


@<TRIPOS>ATOM
      1 N1         11.6336    9.9754   -4.4721 N.am      1 ****       -0.5819 
      2 O2         11.3014    7.0876   -2.7153 O.2       1 ****       -0.4360 
      3 C3          9.4317    5.3878   -8.0034 C.ar      1 ****       -0.1736 
      4 N4         12.3992   11.0876   -6.9089 N.am      1 ****       -0.4289 
      5 O5         12.5355   11.4706   -9.1437 O.2       1 ****       -0.5099 
      6 C6          9.3298    6.4514   -8.9026 C.ar      1 ****       -0.0789 
      7 N7         14.3588   13.0568   -6.3682 N.am      1 ****       -0.3763 
      8 O8          9.7702    9.1334   -5.4620 O.2       1 ****       -0.5158 
      9 C9         10.4069    5.4496   -7.0062 C.ar      1 ****        0.0068 
     10 O10        13.8554   14.1017   -4.3641 O.2       1 ****       -0.5744 
     11 C11        10.1961    7.5401   -8.7823 C.ar      1 ****       -0.1628 
     12 O12        16.9698    7.9014   -5.6484 O.3       1 ****       -0.3030 
     13 C13        15.6126    9.8752   -8.3996 C.ar      1 ****       -0.1185 
     14 C14        16.9707   11.2955   -6.9859 C.ar      1 ****       -0.1185 
     15 C15        14.3866    8.8501   -3.2370 C.ar      1 ****       -0.0703 
     16 C16        13.7465    6.7831   -4.3220 C.ar      1 ****       -0.0703 
     17 C17        16.0178    8.7621   -7.6721 C.ar      1 ****       -0.1314 
     18 C18        17.3867   10.1801   -6.2651 C.ar      1 ****       -0.1314 
     19 C19        15.6184    8.8025   -3.8752 C.ar      1 ****       -0.1479 
     20 C20        14.9760    6.7475   -4.9777 C.ar      1 ****       -0.1479 
     21 C21        15.3336   12.3851   -8.5862 C.3       1 ****       -0.1110 
     22 C22        11.4095    9.4546   -3.1151 C.3       1 ****        0.0042 
     23 C23        12.1100    8.6926   -7.5598 C.3       1 ****       -0.0980 
     24 C24        16.0235   11.1505   -8.0032 C.ar      1 ****       -0.0925 
     25 C25        11.1446    7.5274   -7.7543 C.ar      1 ****        0.0250 
     26 C26        13.4188    7.8797   -3.5155 C.ar      1 ****       -0.1968 
     27 C27        16.8441    8.9270   -6.5578 C.ar      1 ****        0.1208 
     28 C28        15.8860    7.7917   -4.8038 C.ar      1 ****        0.1380 
     29 C29        12.0328    8.0423   -2.9806 C.2       1 ****        0.5399 
     30 C30        12.9074   11.7067   -7.9935 C.2       1 ****        0.5018 
     31 C31        10.8739    9.6730   -5.5419 C.2       1 ****        0.4997 
     32 C32        13.5686   13.8530   -5.5345 C.2       1 ****        0.6108 
     33 C33        14.0423   12.7525   -7.7842 C.3       1 ****        0.0376 
     34 C34        11.4543    9.9674   -6.9435 C.3       1 ****        0.0346 
     35 H35        13.6759   13.6761   -8.2378 H         1 ****        0.0871 
     36 H36        10.6168   10.2742   -7.5734 H         1 ****        0.0942 
     37 H37         8.7709    4.5366   -8.0779 H         1 ****        0.1486 
     38 H38         8.5853    6.4330   -9.6847 H         1 ****        0.1420 
     39 H39        10.5163    4.6467   -6.2923 H         1 ****        0.1638 
     40 H40        10.1287    8.3734   -9.4665 H         1 ****        0.1472 
     41 H41        14.8956    9.7534   -9.1984 H         1 ****        0.1361 
     42 H42        17.3067   12.2774   -6.6858 H         1 ****        0.1361 
     43 H43        14.1730    9.6832   -2.5828 H         1 ****        0.1456 
     44 H44        13.0224    6.0064   -4.5237 H         1 ****        0.1456 
     45 H45        15.6034    7.7920   -7.9050 H         1 ****        0.1431 
     46 H46        18.0334   10.3073   -5.4093 H         1 ****        0.1431 
     47 H47        16.3267    9.6021   -3.7164 H         1 ****        0.1463 
     48 H48        15.1839    5.9571   -5.6841 H         1 ****        0.1463 
     49 H49        16.0304   13.2251   -8.5714 H         1 ****        0.0930 
     50 H50        15.1111   12.2175   -9.6418 H         1 ****        0.0930 
     51 H51        11.8657   10.1315   -2.3928 H         1 ****        0.1060 
     52 H52        10.3465    9.4355   -2.8646 H         1 ****        0.1060 
     53 H53        12.9630    8.3809   -6.9521 H         1 ****        0.0942 
     54 H54        12.5342    8.9153   -8.5393 H         1 ****        0.0942 
     55 H55        12.5051   10.4636   -4.6207 H         1 ****        0.3239 
     56 H56        12.7388   11.3437   -5.9931 H         1 ****        0.2986 
     57 H57        15.1954   12.6403   -5.9853 H         1 ****        0.2769 
     58 O58        12.4243   14.2723   -6.1595 O.3       1 ****       -0.3380 
     59 C59        11.2957   14.8897   -5.5153 C.3       1 ****        0.3047 
     60 C60        11.6711   16.2630   -4.9061 C.3       1 ****       -0.2327 
     61 H61        10.7869   16.7931   -4.5497 H         1 ****        0.0753 
     62 H62        12.3502   16.1694   -4.0591 H         1 ****        0.0753 
     63 H63        12.1599   16.9016   -5.6428 H         1 ****        0.0753 
     64 C64        10.2750   15.0922   -6.6543 C.3       1 ****       -0.2327 
     65 H65        10.6760   15.7324   -7.4417 H         1 ****        0.0753 
     66 H66        10.0038   14.1438   -7.1211 H         1 ****        0.0753 
     67 H67         9.3554   15.5542   -6.2927 H         1 ****        0.0753 
     68 C68        10.6841   13.9501   -4.4448 C.3       1 ****       -0.2327 
     69 H69        10.4623   12.9666   -4.8619 H         1 ****        0.0753 
     70 H70        11.3550   13.7952   -3.5997 H         1 ****        0.0753 
     71 H71         9.7529   14.3543   -4.0460 H         1 ****        0.0753 
     72 N72        11.2591    6.4977   -6.8725 N.ar      1 ****       -0.2997 
@<TRIPOS>BOND
     1    1   55 1    
     2    1   22 1    
     3    1   31 am   BACKBONE|DICT|INTERRES
     4    2   29 2    
     5    3    6 ar   
     6    3    9 ar   
     7    3   37 1    
     8    4   56 1    
     9    4   30 am   BACKBONE|DICT|INTERRES
    10    4   34 1    
    11    5   30 2    
    12    6   11 ar   
    13    6   38 1    
    14    7   57 1    
    15    7   32 am   BACKBONE|DICT|INTERRES
    16    7   33 1    
    17    8   31 2    
    18    9   39 1    
    19    9   72 ar   
    20   10   32 2    
    21   11   25 ar   
    22   11   40 1    
    23   12   27 1    
    24   12   28 1    
    25   13   17 ar   
    26   13   24 ar   
    27   13   41 1    
    28   14   18 ar   
    29   14   24 ar   
    30   14   42 1    
    31   15   19 ar   
    32   15   26 ar   
    33   15   43 1    
    34   16   20 ar   
    35   16   26 ar   
    36   16   44 1    
    37   17   27 ar   
    38   17   45 1    
    39   18   27 ar   
    40   18   46 1    
    41   19   28 ar   
    42   19   47 1    
    43   20   28 ar   
    44   20   48 1    
    45   21   24 1    
    46   21   33 1    
    47   21   49 1    
    48   21   50 1    
    49   22   29 1    
    50   22   51 1    
    51   22   52 1    
    52   23   25 1    
    53   23   34 1    
    54   23   53 1    
    55   23   54 1    
    56   25   72 ar   
    57   26   29 1    
    58   30   33 1    
    59   31   34 1    
    60   32   58 1    
    61   33   35 1    
    62   34   36 1    
    63   58   59 1    
    64   59   60 1    
    65   59   64 1    
    66   59   68 1    
    67   60   61 1    
    68   60   62 1    
    69   60   63 1    
    70   64   65 1    
    71   64   66 1    
    72   64   67 1    
    73   68   69 1    
    74   68   70 1    
    75   68   71 1    
@<TRIPOS>SUBSTRUCTURE
     1 ****        1 GROUP             0       ****    0 ROOT    
@<TRIPOS>MOLECULE
Cpd5-10
72   75    1
SMALL
USER_CHARGES


@<TRIPOS>ATOM
      1 N1         11.1875    9.0517   -5.3040 N.am      1 ****       -0.5819 
      2 O2         11.5774    7.8011   -2.1519 O.2       1 ****       -0.4360 
      3 C3          7.9432   10.2101   -9.4680 C.ar      1 ****       -0.1736 
      4 N4         12.2258   10.9760   -7.0941 N.am      1 ****       -0.4289 
      5 O5         13.1141   12.9952   -7.6589 O.2       1 ****       -0.5099 
      6 C6          8.7769   11.2670   -9.8381 C.ar      1 ****       -0.0789 
      7 N7         12.7214   11.6991  -10.2808 N.am      1 ****       -0.3763 
      8 O8         10.7000   10.6945   -3.8149 O.2       1 ****       -0.5158 
      9 C9          7.8523    9.8754   -8.1153 C.ar      1 ****        0.0068 
     10 O10        13.2703   10.0192  -11.8138 O.2       1 ****       -0.5744 
     11 C11         9.4914   11.9543   -8.8553 C.ar      1 ****       -0.1628 
     12 O12        17.1424    8.2358   -5.3249 O.3       1 ****       -0.3030 
     13 C13        16.2593    9.4216   -8.6556 C.ar      1 ****       -0.1185 
     14 C14        16.1792   11.2732   -7.0953 C.ar      1 ****       -0.1185 
     15 C15        13.7283    6.9932   -4.9161 C.ar      1 ****       -0.0703 
     16 C16        14.3240    8.3447   -2.9982 C.ar      1 ****       -0.0703 
     17 C17        16.8055    8.6106   -7.6668 C.ar      1 ****       -0.1314 
     18 C18        16.7145   10.4596   -6.1034 C.ar      1 ****       -0.1314 
     19 C19        15.0300    7.0922   -5.3882 C.ar      1 ****       -0.1479 
     20 C20        15.6250    8.4596   -3.4831 C.ar      1 ****       -0.1479 
     21 C21        15.0419   11.5248   -9.3383 C.3       1 ****       -0.1110 
     22 C22        10.8666    7.9005   -4.4413 C.3       1 ****        0.0042 
     23 C23        10.1478   12.2370   -6.4070 C.3       1 ****       -0.0980 
     24 C24        15.8846   10.7316   -8.3483 C.ar      1 ****       -0.0925 
     25 C25         9.3541   11.5529   -7.5208 C.ar      1 ****        0.0250 
     26 C26        13.3536    7.6752   -3.7542 C.ar      1 ****       -0.1968 
     27 C27        16.9557    9.1094   -6.3711 C.ar      1 ****        0.1208 
     28 C28        15.9603    7.8858   -4.7103 C.ar      1 ****        0.1380 
     29 C29        11.9233    7.6898   -3.3288 C.2       1 ****        0.5399 
     30 C30        12.9376   11.7968   -7.8911 C.2       1 ****        0.5018 
     31 C31        11.0708   10.3434   -4.9353 C.2       1 ****        0.4997 
     32 C32        12.6734   11.0541  -11.5091 C.2       1 ****        0.6108 
     33 C33        13.5273   11.1705   -9.1757 C.3       1 ****        0.0376 
     34 C34        11.4164   11.4460   -5.9605 C.3       1 ****        0.0346 
     35 H35        13.4042   10.0840   -9.1336 H         1 ****        0.0871 
     36 H36        12.0433   12.1394   -5.3961 H         1 ****        0.0942 
     37 H37         7.3814    9.6642  -10.2114 H         1 ****        0.1486 
     38 H38         8.8720   11.5491  -10.8765 H         1 ****        0.1420 
     39 H39         7.2171    9.0644   -7.7911 H         1 ****        0.1638 
     40 H40        10.1471   12.7684   -9.1277 H         1 ****        0.1472 
     41 H41        16.0444    9.0041   -9.6288 H         1 ****        0.1361 
     42 H42        15.9027   12.2902   -6.8578 H         1 ****        0.1361 
     43 H43        13.0094    6.4305   -5.4940 H         1 ****        0.1456 
     44 H44        14.0614    8.8503   -2.0796 H         1 ****        0.1456 
     45 H45        16.9971    7.5682   -7.8752 H         1 ****        0.1431 
     46 H46        16.8352   10.8470   -5.1022 H         1 ****        0.1431 
     47 H47        15.2882    6.6281   -6.3285 H         1 ****        0.1463 
     48 H48        16.3445    9.0644   -2.9508 H         1 ****        0.1463 
     49 H49        15.2272   12.5955   -9.2303 H         1 ****        0.0930 
     50 H50        15.3837   11.2800  -10.3455 H         1 ****        0.0930 
     51 H51        10.8067    7.0035   -5.0573 H         1 ****        0.1060 
     52 H52         9.8701    8.0142   -4.0091 H         1 ****        0.1060 
     53 H53        10.4529   13.2231   -6.7609 H         1 ****        0.0942 
     54 H54         9.4883   12.4461   -5.5620 H         1 ****        0.0942 
     55 H55        11.4798    8.8384   -6.2468 H         1 ****        0.3239 
     56 H56        12.1370    9.9984   -7.3312 H         1 ****        0.2986 
     57 H57        12.2519   12.5851  -10.1602 H         1 ****        0.2769 
     58 O58        11.8309   11.7466  -12.3234 O.3       1 ****       -0.3380 
     59 C59        11.4354   11.3503  -13.6502 C.3       1 ****        0.3047 
     60 C60        10.6877    9.9929  -13.6314 C.3       1 ****       -0.2327 
     61 H61        10.2679    9.7571  -14.6102 H         1 ****        0.0753 
     62 H62        11.3407    9.1653  -13.3551 H         1 ****        0.0753 
     63 H63         9.8639   10.0051  -12.9164 H         1 ****        0.0753 
     64 C64        10.4637   12.4587  -14.1059 C.3       1 ****       -0.2327 
     65 H65         9.6027   12.5347  -13.4396 H         1 ****        0.0753 
     66 H66        10.9479   13.4365  -14.1151 H         1 ****        0.0753 
     67 H67        10.0839   12.2722  -15.1114 H         1 ****        0.0753 
     68 C68        12.6494   11.3033  -14.6114 C.3       1 ****       -0.2327 
     69 H69        13.2103   12.2384  -14.5859 H         1 ****        0.0753 
     70 H70        13.3457   10.5034  -14.3603 H         1 ****        0.0753 
     71 H71        12.3329   11.1400  -15.6425 H         1 ****        0.0753 
     72 N72         8.5420   10.5283   -7.1448 N.ar      1 ****       -0.2997 
@<TRIPOS>BOND
     1    1   55 1    
     2    1   22 1    
     3    1   31 am   BACKBONE|DICT|INTERRES
     4    2   29 2    
     5    3    6 ar   
     6    3    9 ar   
     7    3   37 1    
     8    4   56 1    
     9    4   30 am   BACKBONE|DICT|INTERRES
    10    4   34 1    
    11    5   30 2    
    12    6   11 ar   
    13    6   38 1    
    14    7   57 1    
    15    7   32 am   BACKBONE|DICT|INTERRES
    16    7   33 1    
    17    8   31 2    
    18    9   39 1    
    19    9   72 ar   
    20   10   32 2    
    21   11   25 ar   
    22   11   40 1    
    23   12   27 1    
    24   12   28 1    
    25   13   17 ar   
    26   13   24 ar   
    27   13   41 1    
    28   14   18 ar   
    29   14   24 ar   
    30   14   42 1    
    31   15   19 ar   
    32   15   26 ar   
    33   15   43 1    
    34   16   20 ar   
    35   16   26 ar   
    36   16   44 1    
    37   17   27 ar   
    38   17   45 1    
    39   18   27 ar   
    40   18   46 1    
    41   19   28 ar   
    42   19   47 1    
    43   20   28 ar   
    44   20   48 1    
    45   21   24 1    
    46   21   33 1    
    47   21   49 1    
    48   21   50 1    
    49   22   29 1    
    50   22   51 1    
    51   22   52 1    
    52   23   25 1    
    53   23   34 1    
    54   23   53 1    
    55   23   54 1    
    56   25   72 ar   
    57   26   29 1    
    58   30   33 1    
    59   31   34 1    
    60   32   58 1    
    61   33   35 1    
    62   34   36 1    
    63   58   59 1    
    64   59   60 1    
    65   59   64 1    
    66   59   68 1    
    67   60   61 1    
    68   60   62 1    
    69   60   63 1    
    70   64   65 1    
    71   64   66 1    
    72   64   67 1    
    73   68   69 1    
    74   68   70 1    
    75   68   71 1    
@<TRIPOS>SUBSTRUCTURE
     1 ****        1 GROUP             0       ****    0 ROOT    
