@<TRIPOS>MOLECULE
Cpd5-1
72   75    1
SMALL
USER_CHARGES


@<TRIPOS>ATOM
      1 N          -1.9751    1.9858   -1.4790 N.3       1 ****        0.0000 
      2 O          -5.1607    2.1756   -2.6248 O.3       1 ****        0.0000 
      3 C           0.2486    0.3341   -5.8897 C.3       1 ****        0.0000 
      4 N           0.2267   -0.1856    0.4036 N.3       1 ****        0.0000 
      5 O           1.9317   -1.3759   -0.5055 O.3       1 ****        0.0000 
      6 C           0.9057   -0.7357   -5.2878 C.3       1 ****        0.0000 
      7 N           0.7846   -1.0762    2.9236 N.3       1 ****        0.0000 
      8 O          -1.4783    1.7573    0.7307 O.3       1 ****        0.0000 
      9 C          -0.6786    1.0452   -5.1326 C.3       1 ****        0.0000 
     10 O           2.2913    0.5698    3.3939 O.3       1 ****        0.0000 
     11 C           0.6071   -1.0555   -3.9672 C.3       1 ****        0.0000 
     12 O          -4.0452   -3.4758    0.2094 O.3       1 ****        0.0000 
     13 C          -0.3936   -3.6298    0.0525 C.3       1 ****        0.0000 
     14 C          -1.0721   -3.6635    2.3587 C.3       1 ****        0.0000 
     15 C          -4.0277    0.1907    0.1368 C.3       1 ****        0.0000 
     16 C          -4.8641   -0.6453   -1.9699 C.3       1 ****        0.0000 
     17 C          -1.7246   -3.6732   -0.3464 C.3       1 ****        0.0000 
     18 C          -2.4143   -3.7119    1.9729 C.3       1 ****        0.0000 
     19 C          -3.9369   -1.1053    0.6205 C.3       1 ****        0.0000 
     20 C          -4.7599   -1.9538   -1.4986 C.3       1 ****        0.0000 
     21 C           1.3624   -3.1968    1.7969 C.3       1 ****        0.0000 
     22 C          -3.2288    2.6962   -1.3044 C.3       1 ****        0.0000 
     23 C          -0.6991   -0.6076   -1.8514 C.3       1 ****        0.0000 
     24 C          -0.0519   -3.5511    1.4084 C.3       1 ****        0.0000 
     25 C          -0.3479   -0.2965   -3.2857 C.3       1 ****        0.0000 
     26 C          -4.4598    0.4296   -1.1726 C.3       1 ****        0.0000 
     27 C          -2.7245   -3.6486    0.6205 C.3       1 ****        0.0000 
     28 C          -4.2588   -2.1744   -0.2178 C.3       1 ****        0.0000 
     29 C          -4.3937    1.8019   -1.7587 C.3       1 ****        0.0000 
     30 C           1.2616   -1.0436    0.4728 C.3       1 ****        0.0000 
     31 C          -1.2719    1.4755   -0.4494 C.3       1 ****        0.0000 
     32 C           1.2344    0.0073    3.6212 C.3       1 ****        0.0000 
     33 C           1.5588   -1.6608    1.8505 C.3       1 ****        0.0000 
     34 C          -0.1871    0.4470   -0.8323 C.3       1 ****        0.0000 
     35 H           2.6123   -1.4499    2.0506 H         1 ****        0.0000 
     36 H           0.6669    0.9825   -1.2706 H         1 ****        0.0000 
     37 H           0.4484    0.6189   -6.9159 H         1 ****        0.0000 
     38 H           1.6432   -1.3116   -5.8387 H         1 ****        0.0000 
     39 H          -1.2086    1.8939   -5.5557 H         1 ****        0.0000 
     40 H           1.1066   -1.8721   -3.4570 H         1 ****        0.0000 
     41 H           0.3943   -3.5995   -0.6958 H         1 ****        0.0000 
     42 H          -0.8243   -3.6787    3.4181 H         1 ****        0.0000 
     43 H          -3.7298    1.0119    0.7800 H         1 ****        0.0000 
     44 H          -5.2095   -0.4541   -2.9819 H         1 ****        0.0000 
     45 H          -1.9985   -3.6634   -1.3976 H         1 ****        0.0000 
     46 H          -3.2124   -3.7388    2.7079 H         1 ****        0.0000 
     47 H          -3.5754   -1.2932    1.6261 H         1 ****        0.0000 
     48 H          -5.0160   -2.8024   -2.1238 H         1 ****        0.0000 
     49 H           1.6222   -3.6007    2.7794 H         1 ****        0.0000 
     50 H           2.0695   -3.5921    1.0639 H         1 ****        0.0000 
     51 H          -3.2512    3.6039   -1.9095 H         1 ****        0.0000 
     52 H          -3.3308    2.9689   -0.2497 H         1 ****        0.0000 
     53 H          -1.7851   -0.7296   -1.7441 H         1 ****        0.0000 
     54 H          -0.2323   -1.5559   -1.5894 H         1 ****        0.0000 
     55 H          -1.7411    1.6658   -2.4291 H         1 ****        0.0000 
     56 H          -0.2416    0.1239    1.2479 H         1 ****        0.0000 
     57 H          -0.1153   -1.4641    3.1752 H         1 ****        0.0000 
     58 O           0.3451    0.3419    4.5691 O.3       1 ****        0.0000 
     59 C           0.5485    1.5292    5.4005 C.3       1 ****        0.0000 
     60 C          -0.6982    1.5390    6.2774 C.3       1 ****        0.0000 
     61 H          -0.6637    2.3937    6.9579 H         1 ****        0.0000 
     62 H          -1.5981    1.6184    5.6609 H         1 ****        0.0000 
     63 H          -0.7554    0.6220    6.8700 H         1 ****        0.0000 
     64 C           1.8030    1.3647    6.2529 C.3       1 ****        0.0000 
     65 H           1.7580    0.4243    6.8103 H         1 ****        0.0000 
     66 H           2.7037    1.3747    5.6384 H         1 ****        0.0000 
     67 H           1.8562    2.1869    6.9712 H         1 ****        0.0000 
     68 C           0.5983    2.7778    4.5240 C.3       1 ****        0.0000 
     69 H           1.5003    2.7979    3.9109 H         1 ****        0.0000 
     70 H          -0.2803    2.8146    3.8726 H         1 ****        0.0000 
     71 H           0.5881    3.6631    5.1662 H         1 ****        0.0000 
     72 N          -0.9718    0.7397   -3.8651 N.3       1 ****        0.0000 
@<TRIPOS>BOND
     1    1   22 1    
     2    1   31 1    
     3    1   55 1    
     4    2   29 1    
     5    3    6 1    
     6    3    9 1    
     7    3   37 1    
     8    4   30 1    
     9    4   34 1    
    10    4   56 1    
    11    5   30 1    
    12    6   11 1    
    13    6   38 1    
    14    7   32 1    
    15    7   33 1    
    16    7   57 1    
    17    8   31 1    
    18    9   39 1    
    19    9   72 1    
    20   10   32 1    
    21   11   25 1    
    22   11   40 1    
    23   12   27 1    
    24   12   28 1    
    25   13   17 1    
    26   13   24 1    
    27   13   41 1    
    28   14   18 1    
    29   14   24 1    
    30   14   42 1    
    31   15   19 1    
    32   15   26 1    
    33   15   43 1    
    34   16   20 1    
    35   16   26 1    
    36   16   44 1    
    37   17   27 1    
    38   17   45 1    
    39   18   27 1    
    40   18   46 1    
    41   19   28 1    
    42   19   47 1    
    43   20   28 1    
    44   20   48 1    
    45   21   24 1    
    46   21   33 1    
    47   21   49 1    
    48   21   50 1    
    49   22   29 1    
    50   22   51 1    
    51   22   52 1    
    52   23   25 1    
    53   23   34 1    
    54   23   53 1    
    55   23   54 1    
    56   25   72 1    
    57   26   29 1    
    58   30   33 1    
    59   31   34 1    
    60   32   58 1    
    61   33   35 1    
    62   34   36 1    
    63   58   59 1    
    64   59   60 1    
    65   59   64 1    
    66   59   68 1    
    67   60   61 1    
    68   60   62 1    
    69   60   63 1    
    70   64   65 1    
    71   64   66 1    
    72   64   67 1    
    73   68   69 1    
    74   68   70 1    
    75   68   71 1    
@<TRIPOS>SUBSTRUCTURE
     1 ****        1 GROUP             0       ****    0 ROOT    
@<TRIPOS>MOLECULE
Cpd5-2
72   75    1
SMALL
USER_CHARGES


@<TRIPOS>ATOM
      1 N          -1.8790    1.6292   -2.0888 N.3       1 ****        0.0000 
      2 O          -4.9956    2.6854   -0.7113 O.3       1 ****        0.0000 
      3 C           1.3700    0.2730   -5.8834 C.3       1 ****        0.0000 
      4 N           0.1284   -0.2215    0.2901 N.3       1 ****        0.0000 
      5 O           2.0964   -1.2359   -0.2058 O.3       1 ****        0.0000 
      6 C           2.1117   -0.5743   -5.0621 C.3       1 ****        0.0000 
      7 N           0.3826   -0.8105    2.9564 N.3       1 ****        0.0000 
      8 O          -1.7561    1.5950    0.1654 O.3       1 ****        0.0000 
      9 C           0.1426    0.7318   -5.4153 C.3       1 ****        0.0000 
     10 O           1.6737    1.0317    3.3159 O.3       1 ****        0.0000 
     11 C           1.5944   -0.9323   -3.8217 C.3       1 ****        0.0000 
     12 O          -3.9969   -3.5995   -0.0883 O.3       1 ****        0.0000 
     13 C          -0.3387   -3.6041    0.1903 C.3       1 ****        0.0000 
     14 C          -1.2908   -3.4935    2.3935 C.3       1 ****        0.0000 
     15 C          -4.7428   -0.0266    0.2273 C.3       1 ****        0.0000 
     16 C          -4.0088   -0.4915   -2.0294 C.3       1 ****        0.0000 
     17 C          -1.6090   -3.7352   -0.3606 C.3       1 ****        0.0000 
     18 C          -2.5721   -3.6225    1.8554 C.3       1 ****        0.0000 
     19 C          -4.6837   -1.3804    0.5319 C.3       1 ****        0.0000 
     20 C          -3.9763   -1.8546   -1.7415 C.3       1 ****        0.0000 
     21 C           1.1779   -2.9821    2.0981 C.3       1 ****        0.0000 
     22 C          -3.0727    2.4484   -2.0849 C.3       1 ****        0.0000 
     23 C          -0.2420   -0.7932   -2.0954 C.3       1 ****        0.0000 
     24 C          -0.1662   -3.4149    1.5658 C.3       1 ****        0.0000 
     25 C           0.3463   -0.4350   -3.4379 C.3       1 ****        0.0000 
     26 C          -4.3537    0.4292   -1.0364 C.3       1 ****        0.0000 
     27 C          -2.7216   -3.6809    0.4749 C.3       1 ****        0.0000 
     28 C          -4.2485   -2.2771   -0.4435 C.3       1 ****        0.0000 
     29 C          -4.2249    1.9026   -1.2319 C.3       1 ****        0.0000 
     30 C           1.2216   -0.9389    0.6092 C.3       1 ****        0.0000 
     31 C          -1.3140    1.2482   -0.9295 C.3       1 ****        0.0000 
     32 C           0.6442    0.4091    3.5108 C.3       1 ****        0.0000 
     33 C           1.3229   -1.4417    2.0584 C.3       1 ****        0.0000 
     34 C          -0.0839    0.3269   -1.0333 C.3       1 ****        0.0000 
     35 H           2.3321   -1.1775    2.3891 H         1 ****        0.0000 
     36 H           0.7808    0.9497   -1.3044 H         1 ****        0.0000 
     37 H           1.7312    0.5779   -6.8577 H         1 ****        0.0000 
     38 H           3.0781   -0.9479   -5.3839 H         1 ****        0.0000 
     39 H          -0.4641    1.4034   -6.0172 H         1 ****        0.0000 
     40 H           2.1437   -1.5790   -3.1443 H         1 ****        0.0000 
     41 H           0.5333   -3.5994   -0.4587 H         1 ****        0.0000 
     42 H          -1.1738   -3.4218    3.4734 H         1 ****        0.0000 
     43 H          -5.0272    0.6983    0.9828 H         1 ****        0.0000 
     44 H          -3.7341   -0.1504   -3.0245 H         1 ****        0.0000 
     45 H          -1.7454   -3.8270   -1.4342 H         1 ****        0.0000 
     46 H          -3.4508   -3.6331    2.4925 H         1 ****        0.0000 
     47 H          -4.9177   -1.7429    1.5264 H         1 ****        0.0000 
     48 H          -3.6857   -2.5808   -2.4934 H         1 ****        0.0000 
     49 H           1.3207   -3.3056    3.1327 H         1 ****        0.0000 
     50 H           1.9836   -3.4028    1.4915 H         1 ****        0.0000 
     51 H          -3.4217    2.5409   -3.1183 H         1 ****        0.0000 
     52 H          -2.8701    3.4542   -1.7049 H         1 ****        0.0000 
     53 H          -1.2996   -1.0552   -2.2016 H         1 ****        0.0000 
     54 H           0.2843   -1.6689   -1.7178 H         1 ****        0.0000 
     55 H          -1.5019    1.2829   -2.9779 H         1 ****        0.0000 
     56 H          -0.5226    0.0732    1.0096 H         1 ****        0.0000 
     57 H          -0.5212   -1.2303    3.1333 H         1 ****        0.0000 
     58 O          -0.3835    0.7948    4.2814 O.3       1 ****        0.0000 
     59 C          -0.3916    2.1144    4.9132 C.3       1 ****        0.0000 
     60 C           0.7457    2.2152    5.9246 C.3       1 ****        0.0000 
     61 H           0.6406    3.1484    6.4879 H         1 ****        0.0000 
     62 H           0.6951    1.3816    6.6316 H         1 ****        0.0000 
     63 H           1.7168    2.2104    5.4305 H         1 ****        0.0000 
     64 C          -0.3231    3.2042    3.8472 C.3       1 ****        0.0000 
     65 H           0.6499    3.2198    3.3553 H         1 ****        0.0000 
     66 H          -1.1029    3.0456    3.0956 H         1 ****        0.0000 
     67 H          -0.4939    4.1754    4.3208 H         1 ****        0.0000 
     68 C          -1.7422    2.1398    5.6187 C.3       1 ****        0.0000 
     69 H          -2.5540    2.0316    4.8936 H         1 ****        0.0000 
     70 H          -1.8080    1.3252    6.3468 H         1 ****        0.0000 
     71 H          -1.8667    3.0902    6.1439 H         1 ****        0.0000 
     72 N          -0.3619    0.3885   -4.2254 N.3       1 ****        0.0000 
@<TRIPOS>BOND
     1    1   22 1    
     2    1   31 1    
     3    1   55 1    
     4    2   29 1    
     5    3    6 1    
     6    3    9 1    
     7    3   37 1    
     8    4   30 1    
     9    4   34 1    
    10    4   56 1    
    11    5   30 1    
    12    6   11 1    
    13    6   38 1    
    14    7   32 1    
    15    7   33 1    
    16    7   57 1    
    17    8   31 1    
    18    9   39 1    
    19    9   72 1    
    20   10   32 1    
    21   11   25 1    
    22   11   40 1    
    23   12   27 1    
    24   12   28 1    
    25   13   17 1    
    26   13   24 1    
    27   13   41 1    
    28   14   18 1    
    29   14   24 1    
    30   14   42 1    
    31   15   19 1    
    32   15   26 1    
    33   15   43 1    
    34   16   20 1    
    35   16   26 1    
    36   16   44 1    
    37   17   27 1    
    38   17   45 1    
    39   18   27 1    
    40   18   46 1    
    41   19   28 1    
    42   19   47 1    
    43   20   28 1    
    44   20   48 1    
    45   21   24 1    
    46   21   33 1    
    47   21   49 1    
    48   21   50 1    
    49   22   29 1    
    50   22   51 1    
    51   22   52 1    
    52   23   25 1    
    53   23   34 1    
    54   23   53 1    
    55   23   54 1    
    56   25   72 1    
    57   26   29 1    
    58   30   33 1    
    59   31   34 1    
    60   32   58 1    
    61   33   35 1    
    62   34   36 1    
    63   58   59 1    
    64   59   60 1    
    65   59   64 1    
    66   59   68 1    
    67   60   61 1    
    68   60   62 1    
    69   60   63 1    
    70   64   65 1    
    71   64   66 1    
    72   64   67 1    
    73   68   69 1    
    74   68   70 1    
    75   68   71 1    
@<TRIPOS>SUBSTRUCTURE
     1 ****        1 GROUP             0       ****    0 ROOT    
@<TRIPOS>MOLECULE
Cpd5-3
72   75    1
SMALL
USER_CHARGES


@<TRIPOS>ATOM
      1 N          -1.9741    1.9820   -1.4473 N.3       1 ****        0.0000 
      2 O          -5.1316    2.1798   -2.6452 O.3       1 ****        0.0000 
      3 C           0.2855    0.3876   -5.8711 C.3       1 ****        0.0000 
      4 N           0.2095   -0.2319    0.4141 N.3       1 ****        0.0000 
      5 O           1.9760   -1.3061   -0.5129 O.3       1 ****        0.0000 
      6 C           0.8925   -0.7287   -5.3003 C.3       1 ****        0.0000 
      7 N           0.9100   -1.0710    2.9425 N.3       1 ****        0.0000 
      8 O          -1.5153    1.6930    0.7633 O.3       1 ****        0.0000 
      9 C          -0.6042    1.1212   -5.0922 C.3       1 ****        0.0000 
     10 O           0.5805    0.6522    4.3947 O.3       1 ****        0.0000 
     11 C           0.5809   -1.0679   -3.9871 C.3       1 ****        0.0000 
     12 O          -4.0475   -3.4735    0.1994 O.3       1 ****        0.0000 
     13 C          -0.3953   -3.6208    0.0486 C.3       1 ****        0.0000 
     14 C          -1.0770   -3.6315    2.3539 C.3       1 ****        0.0000 
     15 C          -4.8434   -0.6443   -1.9900 C.3       1 ****        0.0000 
     16 C          -4.0699    0.1909    0.1419 C.3       1 ****        0.0000 
     17 C          -1.7248   -3.6673   -0.3523 C.3       1 ****        0.0000 
     18 C          -2.4172   -3.6827    1.9671 C.3       1 ****        0.0000 
     19 C          -4.7396   -1.9535   -1.5199 C.3       1 ****        0.0000 
     20 C          -3.9811   -1.1050    0.6235 C.3       1 ****        0.0000 
     21 C           1.3662   -3.2020    1.7881 C.3       1 ****        0.0000 
     22 C          -3.2287    2.6917   -1.2780 C.3       1 ****        0.0000 
     23 C          -0.6983   -0.6159   -1.8553 C.3       1 ****        0.0000 
     24 C          -0.0550   -3.5323    1.4036 C.3       1 ****        0.0000 
     25 C          -0.3335   -0.2823   -3.2814 C.3       1 ****        0.0000 
     26 C          -4.4673    0.4315   -1.1784 C.3       1 ****        0.0000 
     27 C          -2.7265   -3.6353    0.6142 C.3       1 ****        0.0000 
     28 C          -4.2689   -2.1737   -0.2278 C.3       1 ****        0.0000 
     29 C          -4.3871    1.8038   -1.7603 C.3       1 ****        0.0000 
     30 C           1.2847   -1.0381    0.4706 C.3       1 ****        0.0000 
     31 C          -1.2909    1.4420   -0.4196 C.3       1 ****        0.0000 
     32 C           1.1853    0.1655    3.4547 C.3       1 ****        0.0000 
     33 C           1.6188   -1.6746    1.8301 C.3       1 ****        0.0000 
     34 C          -0.2020    0.4218   -0.8115 C.3       1 ****        0.0000 
     35 H           2.6921   -1.5167    1.9644 H         1 ****        0.0000 
     36 H           0.6557    0.9665   -1.2309 H         1 ****        0.0000 
     37 H           0.4970    0.6886   -6.8899 H         1 ****        0.0000 
     38 H           1.5985   -1.3244   -5.8689 H         1 ****        0.0000 
     39 H          -1.0949    2.0049   -5.4908 H         1 ****        0.0000 
     40 H           1.0427   -1.9219   -3.5028 H         1 ****        0.0000 
     41 H           0.3952   -3.6009   -0.6980 H         1 ****        0.0000 
     42 H          -0.8329   -3.6418    3.4145 H         1 ****        0.0000 
     43 H          -5.1627   -0.4520   -3.0092 H         1 ****        0.0000 
     44 H          -3.7940    1.0126    0.7946 H         1 ****        0.0000 
     45 H          -1.9974   -3.6691   -1.4038 H         1 ****        0.0000 
     46 H          -3.2161   -3.7031    2.7010 H         1 ****        0.0000 
     47 H          -4.9715   -2.8021   -2.1544 H         1 ****        0.0000 
     48 H          -3.6437   -1.2930    1.6369 H         1 ****        0.0000 
     49 H           1.6232   -3.6103    2.7705 H         1 ****        0.0000 
     50 H           2.0617   -3.6211    1.0566 H         1 ****        0.0000 
     51 H          -3.2416    3.6085   -1.8713 H         1 ****        0.0000 
     52 H          -3.3429    2.9506   -0.2222 H         1 ****        0.0000 
     53 H          -1.7860   -0.7429   -1.7618 H         1 ****        0.0000 
     54 H          -0.2330   -1.5670   -1.6036 H         1 ****        0.0000 
     55 H          -1.7178    1.6886   -2.4016 H         1 ****        0.0000 
     56 H          -0.3055    0.0081    1.2547 H         1 ****        0.0000 
     57 H           0.1631   -1.5717    3.4035 H         1 ****        0.0000 
     58 O           2.1854    0.7394    2.7731 O.3       1 ****        0.0000 
     59 C           2.5138    2.1531    2.9582 C.3       1 ****        0.0000 
     60 C           3.0642    2.3833    4.3622 C.3       1 ****        0.0000 
     61 H           3.4296    3.4123    4.4370 H         1 ****        0.0000 
     62 H           2.2943    2.2258    5.1176 H         1 ****        0.0000 
     63 H           3.9022    1.7064    4.5541 H         1 ****        0.0000 
     64 C           3.5942    2.3787    1.9072 C.3       1 ****        0.0000 
     65 H           4.4512    1.7262    2.0926 H         1 ****        0.0000 
     66 H           3.2011    2.1676    0.9080 H         1 ****        0.0000 
     67 H           3.9314    3.4183    1.9399 H         1 ****        0.0000 
     68 C           1.2859    3.0067    2.6608 C.3       1 ****        0.0000 
     69 H           0.8634    2.7324    1.6888 H         1 ****        0.0000 
     70 H           0.5181    2.8823    3.4248 H         1 ****        0.0000 
     71 H           1.5836    4.0595    2.6263 H         1 ****        0.0000 
     72 N          -0.9078    0.7965   -3.8319 N.3       1 ****        0.0000 
@<TRIPOS>BOND
     1    1   22 1    
     2    1   31 1    
     3    1   55 1    
     4    2   29 1    
     5    3    6 1    
     6    3    9 1    
     7    3   37 1    
     8    4   30 1    
     9    4   34 1    
    10    4   56 1    
    11    5   30 1    
    12    6   11 1    
    13    6   38 1    
    14    7   32 1    
    15    7   33 1    
    16    7   57 1    
    17    8   31 1    
    18    9   39 1    
    19    9   72 1    
    20   10   32 1    
    21   11   25 1    
    22   11   40 1    
    23   12   27 1    
    24   12   28 1    
    25   13   17 1    
    26   13   24 1    
    27   13   41 1    
    28   14   18 1    
    29   14   24 1    
    30   14   42 1    
    31   15   19 1    
    32   15   26 1    
    33   15   43 1    
    34   16   20 1    
    35   16   26 1    
    36   16   44 1    
    37   17   27 1    
    38   17   45 1    
    39   18   27 1    
    40   18   46 1    
    41   19   28 1    
    42   19   47 1    
    43   20   28 1    
    44   20   48 1    
    45   21   24 1    
    46   21   33 1    
    47   21   49 1    
    48   21   50 1    
    49   22   29 1    
    50   22   51 1    
    51   22   52 1    
    52   23   25 1    
    53   23   34 1    
    54   23   53 1    
    55   23   54 1    
    56   25   72 1    
    57   26   29 1    
    58   30   33 1    
    59   31   34 1    
    60   32   58 1    
    61   33   35 1    
    62   34   36 1    
    63   58   59 1    
    64   59   60 1    
    65   59   64 1    
    66   59   68 1    
    67   60   61 1    
    68   60   62 1    
    69   60   63 1    
    70   64   65 1    
    71   64   66 1    
    72   64   67 1    
    73   68   69 1    
    74   68   70 1    
    75   68   71 1    
@<TRIPOS>SUBSTRUCTURE
     1 ****        1 GROUP             0       ****    0 ROOT    
@<TRIPOS>MOLECULE
Cpd5-4
72   75    1
SMALL
USER_CHARGES


@<TRIPOS>ATOM
      1 N          -1.9750    1.9892   -1.4737 N.3       1 ****        0.0000 
      2 O          -5.1574    2.1787   -2.6269 O.3       1 ****        0.0000 
      3 C           0.1748    0.2555   -5.8986 C.3       1 ****        0.0000 
      4 N           0.2293   -0.1871    0.4035 N.3       1 ****        0.0000 
      5 O           1.9284   -1.3781   -0.5112 O.3       1 ****        0.0000 
      6 C           0.7839   -0.8491   -5.3112 C.3       1 ****        0.0000 
      7 N           0.7974   -1.0708    2.9215 N.3       1 ****        0.0000 
      8 O          -1.4855    1.7460    0.7358 O.3       1 ****        0.0000 
      9 C          -0.6897    1.0205   -5.1217 C.3       1 ****        0.0000 
     10 O           2.2928    0.5942    3.3543 O.3       1 ****        0.0000 
     11 C           0.5014   -1.1476   -3.9822 C.3       1 ****        0.0000 
     12 O          -4.0426   -3.4743    0.2054 O.3       1 ****        0.0000 
     13 C          -0.3907   -3.6373    0.0544 C.3       1 ****        0.0000 
     14 C          -1.0731   -3.6530    2.3607 C.3       1 ****        0.0000 
     15 C          -4.0319    0.1920    0.1380 C.3       1 ****        0.0000 
     16 C          -4.8620   -0.6434   -1.9723 C.3       1 ****        0.0000 
     17 C          -1.7208   -3.6808   -0.3459 C.3       1 ****        0.0000 
     18 C          -2.4143   -3.7025    1.9726 C.3       1 ****        0.0000 
     19 C          -3.9391   -1.1044    0.6195 C.3       1 ****        0.0000 
     20 C          -4.7563   -1.9515   -1.5018 C.3       1 ****        0.0000 
     21 C           1.3643   -3.1960    1.7987 C.3       1 ****        0.0000 
     22 C          -3.2292    2.6982   -1.2988 C.3       1 ****        0.0000 
     23 C          -0.7256   -0.6251   -1.8362 C.3       1 ****        0.0000 
     24 C          -0.0511   -3.5490    1.4105 C.3       1 ****        0.0000 
     25 C          -0.3896   -0.3345   -3.2788 C.3       1 ****        0.0000 
     26 C          -4.4607    0.4318   -1.1724 C.3       1 ****        0.0000 
     27 C          -2.7227   -3.6476    0.6193 C.3       1 ****        0.0000 
     28 C          -4.2569   -2.1733   -0.2204 C.3       1 ****        0.0000 
     29 C          -4.3934    1.8040   -1.7587 C.3       1 ****        0.0000 
     30 C           1.2627   -1.0450    0.4695 C.3       1 ****        0.0000 
     31 C          -1.2768    1.4704   -0.4458 C.3       1 ****        0.0000 
     32 C           1.2428    0.0266    3.5983 C.3       1 ****        0.0000 
     33 C           1.5647   -1.6599    1.8480 C.3       1 ****        0.0000 
     34 C          -0.1979    0.4369   -0.8329 C.3       1 ****        0.0000 
     35 H           2.6211   -1.4508    2.0419 H         1 ****        0.0000 
     36 H           0.6523    0.9671   -1.2854 H         1 ****        0.0000 
     37 H           0.3656    0.5265   -6.9313 H         1 ****        0.0000 
     38 H           1.4726   -1.4680   -5.8780 H         1 ****        0.0000 
     39 H          -1.1813    1.8973   -5.5336 H         1 ****        0.0000 
     40 H           0.9665   -1.9911   -3.4826 H         1 ****        0.0000 
     41 H           0.3985   -3.6128   -0.6919 H         1 ****        0.0000 
     42 H          -0.8266   -3.6611    3.4199 H         1 ****        0.0000 
     43 H          -3.7353    1.0130    0.7807 H         1 ****        0.0000 
     44 H          -5.2044   -0.4503   -2.9842 H         1 ****        0.0000 
     45 H          -1.9929   -3.6790   -1.3979 H         1 ****        0.0000 
     46 H          -3.2140   -3.7226    2.7067 H         1 ****        0.0000 
     47 H          -3.5775   -1.2925    1.6246 H         1 ****        0.0000 
     48 H          -5.0088   -2.8004   -2.1297 H         1 ****        0.0000 
     49 H           1.6239   -3.5971    2.7817 H         1 ****        0.0000 
     50 H           2.0703   -3.5948    1.0655 H         1 ****        0.0000 
     51 H          -3.2507    3.6086   -1.9014 H         1 ****        0.0000 
     52 H          -3.3336    2.9679   -0.2446 H         1 ****        0.0000 
     53 H          -1.8107   -0.7405   -1.7157 H         1 ****        0.0000 
     54 H          -0.2629   -1.5735   -1.5691 H         1 ****        0.0000 
     55 H          -1.7347    1.6739   -2.4248 H         1 ****        0.0000 
     56 H          -0.2427    0.1163    1.2481 H         1 ****        0.0000 
     57 H          -0.0999   -1.4597    3.1817 H         1 ****        0.0000 
     58 O           0.3575    0.3704    4.5464 O.3       1 ****        0.0000 
     59 C           0.5559    1.5724    5.3579 C.3       1 ****        0.0000 
     60 C          -0.6881    1.5910    6.2381 C.3       1 ****        0.0000 
     61 H          -0.6548    2.4551    6.9062 H         1 ****        0.0000 
     62 H          -1.5899    1.6569    5.6236 H         1 ****        0.0000 
     63 H          -0.7402    0.6818    6.8441 H         1 ****        0.0000 
     64 C           1.8141    1.4270    6.2088 C.3       1 ****        0.0000 
     65 H           1.7725    0.4985    6.7868 H         1 ****        0.0000 
     66 H           2.7121    1.4257    5.5906 H         1 ****        0.0000 
     67 H           1.8695    2.2650    6.9102 H         1 ****        0.0000 
     68 C           0.5975    2.8069    4.4615 C.3       1 ****        0.0000 
     69 H           1.5002    2.8244    3.8502 H         1 ****        0.0000 
     70 H          -0.2799    2.8261    3.8082 H         1 ****        0.0000 
     71 H           0.5788    3.7024    5.0897 H         1 ****        0.0000 
     72 N          -0.9673    0.7342   -3.8458 N.3       1 ****        0.0000 
@<TRIPOS>BOND
     1    1   22 1    
     2    1   31 1    
     3    1   55 1    
     4    2   29 1    
     5    3    6 1    
     6    3    9 1    
     7    3   37 1    
     8    4   30 1    
     9    4   34 1    
    10    4   56 1    
    11    5   30 1    
    12    6   11 1    
    13    6   38 1    
    14    7   32 1    
    15    7   33 1    
    16    7   57 1    
    17    8   31 1    
    18    9   39 1    
    19    9   72 1    
    20   10   32 1    
    21   11   25 1    
    22   11   40 1    
    23   12   27 1    
    24   12   28 1    
    25   13   17 1    
    26   13   24 1    
    27   13   41 1    
    28   14   18 1    
    29   14   24 1    
    30   14   42 1    
    31   15   19 1    
    32   15   26 1    
    33   15   43 1    
    34   16   20 1    
    35   16   26 1    
    36   16   44 1    
    37   17   27 1    
    38   17   45 1    
    39   18   27 1    
    40   18   46 1    
    41   19   28 1    
    42   19   47 1    
    43   20   28 1    
    44   20   48 1    
    45   21   24 1    
    46   21   33 1    
    47   21   49 1    
    48   21   50 1    
    49   22   29 1    
    50   22   51 1    
    51   22   52 1    
    52   23   25 1    
    53   23   34 1    
    54   23   53 1    
    55   23   54 1    
    56   25   72 1    
    57   26   29 1    
    58   30   33 1    
    59   31   34 1    
    60   32   58 1    
    61   33   35 1    
    62   34   36 1    
    63   58   59 1    
    64   59   60 1    
    65   59   64 1    
    66   59   68 1    
    67   60   61 1    
    68   60   62 1    
    69   60   63 1    
    70   64   65 1    
    71   64   66 1    
    72   64   67 1    
    73   68   69 1    
    74   68   70 1    
    75   68   71 1    
@<TRIPOS>SUBSTRUCTURE
     1 ****        1 GROUP             0       ****    0 ROOT    
@<TRIPOS>MOLECULE
Cpd5-5
72   75    1
SMALL
USER_CHARGES


@<TRIPOS>ATOM
      1 N          -1.8792    1.6282   -2.0896 N.3       1 ****        0.0000 
      2 O          -4.9942    2.6861   -0.7109 O.3       1 ****        0.0000 
      3 C           1.3699    0.2732   -5.8827 C.3       1 ****        0.0000 
      4 N           0.1280   -0.2210    0.2907 N.3       1 ****        0.0000 
      5 O           2.0965   -1.2347   -0.2054 O.3       1 ****        0.0000 
      6 C           2.1128   -0.5721   -5.0616 C.3       1 ****        0.0000 
      7 N           0.3822   -0.8106    2.9570 N.3       1 ****        0.0000 
      8 O          -1.7559    1.5956    0.1653 O.3       1 ****        0.0000 
      9 C           0.1422    0.7324   -5.4162 C.3       1 ****        0.0000 
     10 O           1.6714    1.0328    3.3144 O.3       1 ****        0.0000 
     11 C           1.5961   -0.9306   -3.8216 C.3       1 ****        0.0000 
     12 O          -3.9977   -3.6000   -0.0881 O.3       1 ****        0.0000 
     13 C          -0.3389   -3.6046    0.1902 C.3       1 ****        0.0000 
     14 C          -1.2909   -3.4938    2.3938 C.3       1 ****        0.0000 
     15 C          -4.7429   -0.0267    0.2276 C.3       1 ****        0.0000 
     16 C          -4.0089   -0.4919   -2.0296 C.3       1 ****        0.0000 
     17 C          -1.6087   -3.7351   -0.3614 C.3       1 ****        0.0000 
     18 C          -2.5718   -3.6232    1.8551 C.3       1 ****        0.0000 
     19 C          -4.6834   -1.3806    0.5320 C.3       1 ****        0.0000 
     20 C          -3.9768   -1.8538   -1.7411 C.3       1 ****        0.0000 
     21 C           1.1776   -2.9826    2.0978 C.3       1 ****        0.0000 
     22 C          -3.0730    2.4481   -2.0853 C.3       1 ****        0.0000 
     23 C          -0.2413   -0.7936   -2.0959 C.3       1 ****        0.0000 
     24 C          -0.1661   -3.4157    1.5658 C.3       1 ****        0.0000 
     25 C           0.3465   -0.4348   -3.4380 C.3       1 ****        0.0000 
     26 C          -4.3535    0.4285   -1.0357 C.3       1 ****        0.0000 
     27 C          -2.7217   -3.6813    0.4746 C.3       1 ****        0.0000 
     28 C          -4.2485   -2.2768   -0.4433 C.3       1 ****        0.0000 
     29 C          -4.2252    1.9029   -1.2320 C.3       1 ****        0.0000 
     30 C           1.2213   -0.9382    0.6092 C.3       1 ****        0.0000 
     31 C          -1.3134    1.2481   -0.9303 C.3       1 ****        0.0000 
     32 C           0.6430    0.4088    3.5097 C.3       1 ****        0.0000 
     33 C           1.3232   -1.4412    2.0593 C.3       1 ****        0.0000 
     34 C          -0.0839    0.3274   -1.0337 C.3       1 ****        0.0000 
     35 H           2.3311   -1.1768    2.3895 H         1 ****        0.0000 
     36 H           0.7805    0.9496   -1.3042 H         1 ****        0.0000 
     37 H           1.7315    0.5793   -6.8579 H         1 ****        0.0000 
     38 H           3.0807   -0.9443   -5.3822 H         1 ****        0.0000 
     39 H          -0.4657    1.4020   -6.0180 H         1 ****        0.0000 
     40 H           2.1456   -1.5762   -3.1432 H         1 ****        0.0000 
     41 H           0.5334   -3.5996   -0.4593 H         1 ****        0.0000 
     42 H          -1.1734   -3.4224    3.4737 H         1 ****        0.0000 
     43 H          -5.0268    0.6990    0.9839 H         1 ****        0.0000 
     44 H          -3.7349   -0.1504   -3.0245 H         1 ****        0.0000 
     45 H          -1.7455   -3.8265   -1.4340 H         1 ****        0.0000 
     46 H          -3.4506   -3.6331    2.4927 H         1 ****        0.0000 
     47 H          -4.9177   -1.7431    1.5273 H         1 ****        0.0000 
     48 H          -3.6857   -2.5807   -2.4928 H         1 ****        0.0000 
     49 H           1.3210   -3.3063    3.1333 H         1 ****        0.0000 
     50 H           1.9838   -3.4020    1.4914 H         1 ****        0.0000 
     51 H          -3.4227    2.5399   -3.1185 H         1 ****        0.0000 
     52 H          -2.8700    3.4536   -1.7060 H         1 ****        0.0000 
     53 H          -1.2996   -1.0557   -2.2016 H         1 ****        0.0000 
     54 H           0.2853   -1.6690   -1.7173 H         1 ****        0.0000 
     55 H          -1.5015    1.2824   -2.9776 H         1 ****        0.0000 
     56 H          -0.5234    0.0733    1.0100 H         1 ****        0.0000 
     57 H          -0.5217   -1.2317    3.1335 H         1 ****        0.0000 
     58 O          -0.3852    0.7941    4.2809 O.3       1 ****        0.0000 
     59 C          -0.3939    2.1146    4.9128 C.3       1 ****        0.0000 
     60 C           0.7439    2.2155    5.9247 C.3       1 ****        0.0000 
     61 H           0.6391    3.1482    6.4870 H         1 ****        0.0000 
     62 H           0.6952    1.3813    6.6304 H         1 ****        0.0000 
     63 H           1.7151    2.2109    5.4291 H         1 ****        0.0000 
     64 C          -0.3263    3.2047    3.8471 C.3       1 ****        0.0000 
     65 H           0.6468    3.2207    3.3547 H         1 ****        0.0000 
     66 H          -1.1067    3.0453    3.0964 H         1 ****        0.0000 
     67 H          -0.4977    4.1758    4.3209 H         1 ****        0.0000 
     68 C          -1.7438    2.1383    5.6188 C.3       1 ****        0.0000 
     69 H          -2.5552    2.0301    4.8943 H         1 ****        0.0000 
     70 H          -1.8086    1.3245    6.3464 H         1 ****        0.0000 
     71 H          -1.8690    3.0886    6.1441 H         1 ****        0.0000 
     72 N          -0.3617    0.3887   -4.2257 N.3       1 ****        0.0000 
@<TRIPOS>BOND
     1    1   22 1    
     2    1   31 1    
     3    1   55 1    
     4    2   29 1    
     5    3    6 1    
     6    3    9 1    
     7    3   37 1    
     8    4   30 1    
     9    4   34 1    
    10    4   56 1    
    11    5   30 1    
    12    6   11 1    
    13    6   38 1    
    14    7   32 1    
    15    7   33 1    
    16    7   57 1    
    17    8   31 1    
    18    9   39 1    
    19    9   72 1    
    20   10   32 1    
    21   11   25 1    
    22   11   40 1    
    23   12   27 1    
    24   12   28 1    
    25   13   17 1    
    26   13   24 1    
    27   13   41 1    
    28   14   18 1    
    29   14   24 1    
    30   14   42 1    
    31   15   19 1    
    32   15   26 1    
    33   15   43 1    
    34   16   20 1    
    35   16   26 1    
    36   16   44 1    
    37   17   27 1    
    38   17   45 1    
    39   18   27 1    
    40   18   46 1    
    41   19   28 1    
    42   19   47 1    
    43   20   28 1    
    44   20   48 1    
    45   21   24 1    
    46   21   33 1    
    47   21   49 1    
    48   21   50 1    
    49   22   29 1    
    50   22   51 1    
    51   22   52 1    
    52   23   25 1    
    53   23   34 1    
    54   23   53 1    
    55   23   54 1    
    56   25   72 1    
    57   26   29 1    
    58   30   33 1    
    59   31   34 1    
    60   32   58 1    
    61   33   35 1    
    62   34   36 1    
    63   58   59 1    
    64   59   60 1    
    65   59   64 1    
    66   59   68 1    
    67   60   61 1    
    68   60   62 1    
    69   60   63 1    
    70   64   65 1    
    71   64   66 1    
    72   64   67 1    
    73   68   69 1    
    74   68   70 1    
    75   68   71 1    
@<TRIPOS>SUBSTRUCTURE
     1 ****        1 GROUP             0       ****    0 ROOT    
@<TRIPOS>MOLECULE
Cpd5-6
72   75    1
SMALL
USER_CHARGES


@<TRIPOS>ATOM
      1 N          -1.8792    1.6281   -2.0892 N.3       1 ****        0.0000 
      2 O          -4.9949    2.6858   -0.7107 O.3       1 ****        0.0000 
      3 C           1.3701    0.2737   -5.8830 C.3       1 ****        0.0000 
      4 N           0.1282   -0.2211    0.2901 N.3       1 ****        0.0000 
      5 O           2.0965   -1.2350   -0.2053 O.3       1 ****        0.0000 
      6 C           2.1119   -0.5726   -5.0627 C.3       1 ****        0.0000 
      7 N           0.3828   -0.8111    2.9566 N.3       1 ****        0.0000 
      8 O          -1.7567    1.5940    0.1651 O.3       1 ****        0.0000 
      9 C           0.1427    0.7332   -5.4153 C.3       1 ****        0.0000 
     10 O           1.6725    1.0332    3.3142 O.3       1 ****        0.0000 
     11 C           1.5954   -0.9316   -3.8214 C.3       1 ****        0.0000 
     12 O          -3.9972   -3.5997   -0.0881 O.3       1 ****        0.0000 
     13 C          -0.3393   -3.6046    0.1905 C.3       1 ****        0.0000 
     14 C          -1.2908   -3.4942    2.3944 C.3       1 ****        0.0000 
     15 C          -4.0083   -0.4919   -2.0293 C.3       1 ****        0.0000 
     16 C          -4.7428   -0.0262    0.2271 C.3       1 ****        0.0000 
     17 C          -1.6092   -3.7350   -0.3609 C.3       1 ****        0.0000 
     18 C          -2.5718   -3.6226    1.8549 C.3       1 ****        0.0000 
     19 C          -3.9764   -1.8538   -1.7415 C.3       1 ****        0.0000 
     20 C          -4.6836   -1.3809    0.5319 C.3       1 ****        0.0000 
     21 C           1.1778   -2.9825    2.0976 C.3       1 ****        0.0000 
     22 C          -3.0728    2.4482   -2.0847 C.3       1 ****        0.0000 
     23 C          -0.2417   -0.7940   -2.0963 C.3       1 ****        0.0000 
     24 C          -0.1661   -3.4154    1.5660 C.3       1 ****        0.0000 
     25 C           0.3458   -0.4356   -3.4386 C.3       1 ****        0.0000 
     26 C          -4.3536    0.4287   -1.0365 C.3       1 ****        0.0000 
     27 C          -2.7210   -3.6811    0.4743 C.3       1 ****        0.0000 
     28 C          -4.2489   -2.2764   -0.4435 C.3       1 ****        0.0000 
     29 C          -4.2250    1.9032   -1.2321 C.3       1 ****        0.0000 
     30 C           1.2215   -0.9382    0.6095 C.3       1 ****        0.0000 
     31 C          -1.3142    1.2483   -0.9298 C.3       1 ****        0.0000 
     32 C           0.6441    0.4095    3.5099 C.3       1 ****        0.0000 
     33 C           1.3236   -1.4411    2.0587 C.3       1 ****        0.0000 
     34 C          -0.0838    0.3273   -1.0334 C.3       1 ****        0.0000 
     35 H           2.3315   -1.1777    2.3888 H         1 ****        0.0000 
     36 H           0.7806    0.9493   -1.3042 H         1 ****        0.0000 
     37 H           1.7315    0.5785   -6.8583 H         1 ****        0.0000 
     38 H           3.0784   -0.9468   -5.3831 H         1 ****        0.0000 
     39 H          -0.4641    1.4037   -6.0173 H         1 ****        0.0000 
     40 H           2.1437   -1.5781   -3.1437 H         1 ****        0.0000 
     41 H           0.5339   -3.6000   -0.4593 H         1 ****        0.0000 
     42 H          -1.1730   -3.4217    3.4731 H         1 ****        0.0000 
     43 H          -3.7345   -0.1506   -3.0243 H         1 ****        0.0000 
     44 H          -5.0276    0.6979    0.9836 H         1 ****        0.0000 
     45 H          -1.7454   -3.8269   -1.4345 H         1 ****        0.0000 
     46 H          -3.4506   -3.6333    2.4928 H         1 ****        0.0000 
     47 H          -3.6846   -2.5811   -2.4932 H         1 ****        0.0000 
     48 H          -4.9187   -1.7431    1.5273 H         1 ****        0.0000 
     49 H           1.3214   -3.3059    3.1331 H         1 ****        0.0000 
     50 H           1.9837   -3.4020    1.4910 H         1 ****        0.0000 
     51 H          -3.4226    2.5408   -3.1181 H         1 ****        0.0000 
     52 H          -2.8705    3.4540   -1.7046 H         1 ****        0.0000 
     53 H          -1.3000   -1.0550   -2.2018 H         1 ****        0.0000 
     54 H           0.2849   -1.6685   -1.7178 H         1 ****        0.0000 
     55 H          -1.5016    1.2831   -2.9772 H         1 ****        0.0000 
     56 H          -0.5231    0.0725    1.0096 H         1 ****        0.0000 
     57 H          -0.5209   -1.2301    3.1331 H         1 ****        0.0000 
     58 O          -0.3850    0.7950    4.2793 O.3       1 ****        0.0000 
     59 C          -0.3924    2.1154    4.9109 C.3       1 ****        0.0000 
     60 C          -0.3249    3.2054    3.8449 C.3       1 ****        0.0000 
     61 H          -0.4950    4.1764    4.3185 H         1 ****        0.0000 
     62 H           0.6492    3.2210    3.3532 H         1 ****        0.0000 
     63 H          -1.1034    3.0466    3.0941 H         1 ****        0.0000 
     64 C          -1.7431    2.1405    5.6161 C.3       1 ****        0.0000 
     65 H          -2.5547    2.0321    4.8908 H         1 ****        0.0000 
     66 H          -1.8089    1.3270    6.3440 H         1 ****        0.0000 
     67 H          -1.8680    3.0909    6.1412 H         1 ****        0.0000 
     68 C           0.7447    2.2167    5.9235 C.3       1 ****        0.0000 
     69 H           0.6941    1.3829    6.6295 H         1 ****        0.0000 
     70 H           1.7159    2.2119    5.4287 H         1 ****        0.0000 
     71 H           0.6392    3.1496    6.4857 H         1 ****        0.0000 
     72 N          -0.3611    0.3889   -4.2245 N.3       1 ****        0.0000 
@<TRIPOS>BOND
     1    1   22 1    
     2    1   31 1    
     3    1   55 1    
     4    2   29 1    
     5    3    6 1    
     6    3    9 1    
     7    3   37 1    
     8    4   30 1    
     9    4   34 1    
    10    4   56 1    
    11    5   30 1    
    12    6   11 1    
    13    6   38 1    
    14    7   32 1    
    15    7   33 1    
    16    7   57 1    
    17    8   31 1    
    18    9   39 1    
    19    9   72 1    
    20   10   32 1    
    21   11   25 1    
    22   11   40 1    
    23   12   27 1    
    24   12   28 1    
    25   13   17 1    
    26   13   24 1    
    27   13   41 1    
    28   14   18 1    
    29   14   24 1    
    30   14   42 1    
    31   15   19 1    
    32   15   26 1    
    33   15   43 1    
    34   16   20 1    
    35   16   26 1    
    36   16   44 1    
    37   17   27 1    
    38   17   45 1    
    39   18   27 1    
    40   18   46 1    
    41   19   28 1    
    42   19   47 1    
    43   20   28 1    
    44   20   48 1    
    45   21   24 1    
    46   21   33 1    
    47   21   49 1    
    48   21   50 1    
    49   22   29 1    
    50   22   51 1    
    51   22   52 1    
    52   23   25 1    
    53   23   34 1    
    54   23   53 1    
    55   23   54 1    
    56   25   72 1    
    57   26   29 1    
    58   30   33 1    
    59   31   34 1    
    60   32   58 1    
    61   33   35 1    
    62   34   36 1    
    63   58   59 1    
    64   59   60 1    
    65   59   64 1    
    66   59   68 1    
    67   60   61 1    
    68   60   62 1    
    69   60   63 1    
    70   64   65 1    
    71   64   66 1    
    72   64   67 1    
    73   68   69 1    
    74   68   70 1    
    75   68   71 1    
@<TRIPOS>SUBSTRUCTURE
     1 ****        1 GROUP             0       ****    0 ROOT    
@<TRIPOS>MOLECULE
Cpd5-7
72   75    1
SMALL
USER_CHARGES


@<TRIPOS>ATOM
      1 N          -1.8755    1.6274   -2.0669 N.3       1 ****        0.0000 
      2 O          -5.0197    2.6878   -0.7414 O.3       1 ****        0.0000 
      3 C           1.4179    0.3627   -5.8454 C.3       1 ****        0.0000 
      4 N           0.1198   -0.2579    0.3025 N.3       1 ****        0.0000 
      5 O           2.1269   -1.1765   -0.2097 O.3       1 ****        0.0000 
      6 C           2.1613   -0.4863   -5.0289 C.3       1 ****        0.0000 
      7 N           0.4758   -0.8162    2.9851 N.3       1 ****        0.0000 
      8 O          -1.7774    1.5543    0.1886 O.3       1 ****        0.0000 
      9 C           0.1781    0.7957   -5.3864 C.3       1 ****        0.0000 
     10 O          -0.1988    1.0219    4.1487 O.3       1 ****        0.0000 
     11 C           1.6341   -0.8741   -3.8016 C.3       1 ****        0.0000 
     12 O          -4.0000   -3.5928   -0.0860 O.3       1 ****        0.0000 
     13 C          -0.3411   -3.6084    0.1833 C.3       1 ****        0.0000 
     14 C          -1.2877   -3.4765    2.3887 C.3       1 ****        0.0000 
     15 C          -4.0009   -0.4881   -2.0316 C.3       1 ****        0.0000 
     16 C          -4.7644   -0.0215    0.2162 C.3       1 ****        0.0000 
     17 C          -1.6126   -3.7370   -0.3650 C.3       1 ****        0.0000 
     18 C          -2.5707   -3.6006    1.8531 C.3       1 ****        0.0000 
     19 C          -3.9669   -1.8496   -1.7410 C.3       1 ****        0.0000 
     20 C          -4.7031   -1.3758    0.5225 C.3       1 ****        0.0000 
     21 C           1.1873   -2.9981    2.0834 C.3       1 ****        0.0000 
     22 C          -3.0633    2.4546   -2.0647 C.3       1 ****        0.0000 
     23 C          -0.2276   -0.7919   -2.0979 C.3       1 ****        0.0000 
     24 C          -0.1641   -3.4119    1.5577 C.3       1 ****        0.0000 
     25 C           0.3730   -0.4024   -3.4261 C.3       1 ****        0.0000 
     26 C          -4.3620    0.4325   -1.0438 C.3       1 ****        0.0000 
     27 C          -2.7232   -3.6710    0.4733 C.3       1 ****        0.0000 
     28 C          -4.2533   -2.2714   -0.4451 C.3       1 ****        0.0000 
     29 C          -4.2352    1.9058   -1.2398 C.3       1 ****        0.0000 
     30 C           1.2412   -0.9358    0.6111 C.3       1 ****        0.0000 
     31 C          -1.3243    1.2257   -0.9066 C.3       1 ****        0.0000 
     32 C           0.5863    0.4840    3.3874 C.3       1 ****        0.0000 
     33 C           1.3742   -1.4616    2.0493 C.3       1 ****        0.0000 
     34 C          -0.0919    0.3104   -1.0132 C.3       1 ****        0.0000 
     35 H           2.4066   -1.2421    2.3362 H         1 ****        0.0000 
     36 H           0.7740    0.9423   -1.2640 H         1 ****        0.0000 
     37 H           1.7871    0.6899   -6.8108 H         1 ****        0.0000 
     38 H           3.1385   -0.8408   -5.3441 H         1 ****        0.0000 
     39 H          -0.4311    1.4677   -5.9850 H         1 ****        0.0000 
     40 H           2.1844   -1.5226   -3.1283 H         1 ****        0.0000 
     41 H           0.5300   -3.6152   -0.4673 H         1 ****        0.0000 
     42 H          -1.1694   -3.4040    3.4679 H         1 ****        0.0000 
     43 H          -3.7170   -0.1466   -3.0231 H         1 ****        0.0000 
     44 H          -5.0581    0.7032    0.9686 H         1 ****        0.0000 
     45 H          -1.7516   -3.8400   -1.4359 H         1 ****        0.0000 
     46 H          -3.4462   -3.6003    2.4922 H         1 ****        0.0000 
     47 H          -3.6638   -2.5752   -2.4884 H         1 ****        0.0000 
     48 H          -4.9457   -1.7372    1.5170 H         1 ****        0.0000 
     49 H           1.3337   -3.3291    3.1164 H         1 ****        0.0000 
     50 H           1.9833   -3.4323    1.4730 H         1 ****        0.0000 
     51 H          -3.3961    2.5709   -3.1002 H         1 ****        0.0000 
     52 H          -2.8591    3.4527   -1.6626 H         1 ****        0.0000 
     53 H          -1.2822   -1.0598   -2.2219 H         1 ****        0.0000 
     54 H           0.3012   -1.6699   -1.7291 H         1 ****        0.0000 
     55 H          -1.4903    1.2932   -2.9557 H         1 ****        0.0000 
     56 H          -0.5599   -0.0237    1.0175 H         1 ****        0.0000 
     57 H          -0.3350   -1.3078    3.3376 H         1 ****        0.0000 
     58 O           1.6613    1.0541    2.8257 O.3       1 ****        0.0000 
     59 C           1.8657    2.5015    2.8864 C.3       1 ****        0.0000 
     60 C           3.1131    2.6943    2.0318 C.3       1 ****        0.0000 
     61 H           3.3741    3.7549    1.9922 H         1 ****        0.0000 
     62 H           3.9551    2.1404    2.4548 H         1 ****        0.0000 
     63 H           2.9344    2.3369    1.0134 H         1 ****        0.0000 
     64 C           0.6692    3.2102    2.2611 C.3       1 ****        0.0000 
     65 H           0.4619    2.7944    1.2696 H         1 ****        0.0000 
     66 H          -0.2250    3.1045    2.8766 H         1 ****        0.0000 
     67 H           0.9002    4.2737    2.1517 H         1 ****        0.0000 
     68 C           2.1217    2.9378    4.3257 C.3       1 ****        0.0000 
     69 H           1.2296    2.8122    4.9393 H         1 ****        0.0000 
     70 H           2.9415    2.3552    4.7550 H         1 ****        0.0000 
     71 H           2.4101    3.9939    4.3311 H         1 ****        0.0000 
     72 N          -0.3365    0.4244   -4.2088 N.3       1 ****        0.0000 
@<TRIPOS>BOND
     1    1   22 1    
     2    1   31 1    
     3    1   55 1    
     4    2   29 1    
     5    3    6 1    
     6    3    9 1    
     7    3   37 1    
     8    4   30 1    
     9    4   34 1    
    10    4   56 1    
    11    5   30 1    
    12    6   11 1    
    13    6   38 1    
    14    7   32 1    
    15    7   33 1    
    16    7   57 1    
    17    8   31 1    
    18    9   39 1    
    19    9   72 1    
    20   10   32 1    
    21   11   25 1    
    22   11   40 1    
    23   12   27 1    
    24   12   28 1    
    25   13   17 1    
    26   13   24 1    
    27   13   41 1    
    28   14   18 1    
    29   14   24 1    
    30   14   42 1    
    31   15   19 1    
    32   15   26 1    
    33   15   43 1    
    34   16   20 1    
    35   16   26 1    
    36   16   44 1    
    37   17   27 1    
    38   17   45 1    
    39   18   27 1    
    40   18   46 1    
    41   19   28 1    
    42   19   47 1    
    43   20   28 1    
    44   20   48 1    
    45   21   24 1    
    46   21   33 1    
    47   21   49 1    
    48   21   50 1    
    49   22   29 1    
    50   22   51 1    
    51   22   52 1    
    52   23   25 1    
    53   23   34 1    
    54   23   53 1    
    55   23   54 1    
    56   25   72 1    
    57   26   29 1    
    58   30   33 1    
    59   31   34 1    
    60   32   58 1    
    61   33   35 1    
    62   34   36 1    
    63   58   59 1    
    64   59   60 1    
    65   59   64 1    
    66   59   68 1    
    67   60   61 1    
    68   60   62 1    
    69   60   63 1    
    70   64   65 1    
    71   64   66 1    
    72   64   67 1    
    73   68   69 1    
    74   68   70 1    
    75   68   71 1    
@<TRIPOS>SUBSTRUCTURE
     1 ****        1 GROUP             0       ****    0 ROOT    
@<TRIPOS>MOLECULE
Cpd5-8
72   75    1
SMALL
USER_CHARGES


@<TRIPOS>ATOM
      1 N          -1.9740    1.9815   -1.4524 N.3       1 ****        0.0000 
      2 O          -5.1371    2.1810   -2.6409 O.3       1 ****        0.0000 
      3 C           0.2767    0.3741   -5.8737 C.3       1 ****        0.0000 
      4 N           0.2085   -0.2295    0.4139 N.3       1 ****        0.0000 
      5 O           1.9709   -1.3112   -0.5125 O.3       1 ****        0.0000 
      6 C           0.8915   -0.7339   -5.2971 C.3       1 ****        0.0000 
      7 N           0.9044   -1.0707    2.9422 N.3       1 ****        0.0000 
      8 O          -1.5105    1.7019    0.7592 O.3       1 ****        0.0000 
      9 C          -0.6195    1.1050   -5.0989 C.3       1 ****        0.0000 
     10 O           0.5722    0.6509    4.3959 O.3       1 ****        0.0000 
     11 C           0.5826   -1.0701   -3.9829 C.3       1 ****        0.0000 
     12 O          -4.0466   -3.4742    0.1991 O.3       1 ****        0.0000 
     13 C          -0.3950   -3.6232    0.0503 C.3       1 ****        0.0000 
     14 C          -1.0768   -3.6335    2.3555 C.3       1 ****        0.0000 
     15 C          -4.8462   -0.6436   -1.9867 C.3       1 ****        0.0000 
     16 C          -4.0634    0.1915    0.1415 C.3       1 ****        0.0000 
     17 C          -1.7232   -3.6689   -0.3511 C.3       1 ****        0.0000 
     18 C          -2.4180   -3.6857    1.9675 C.3       1 ****        0.0000 
     19 C          -4.7424   -1.9526   -1.5185 C.3       1 ****        0.0000 
     20 C          -3.9732   -1.1055    0.6228 C.3       1 ****        0.0000 
     21 C           1.3657   -3.2015    1.7893 C.3       1 ****        0.0000 
     22 C          -3.2280    2.6933   -1.2816 C.3       1 ****        0.0000 
     23 C          -0.7021   -0.6196   -1.8541 C.3       1 ****        0.0000 
     24 C          -0.0553   -3.5344    1.4054 C.3       1 ****        0.0000 
     25 C          -0.3394   -0.2878   -3.2815 C.3       1 ****        0.0000 
     26 C          -4.4662    0.4316   -1.1765 C.3       1 ****        0.0000 
     27 C          -2.7262   -3.6369    0.6139 C.3       1 ****        0.0000 
     28 C          -4.2671   -2.1736   -0.2275 C.3       1 ****        0.0000 
     29 C          -4.3877    1.8043   -1.7602 C.3       1 ****        0.0000 
     30 C           1.2815   -1.0390    0.4710 C.3       1 ****        0.0000 
     31 C          -1.2897    1.4449   -0.4238 C.3       1 ****        0.0000 
     32 C           1.1774    0.1656    3.4558 C.3       1 ****        0.0000 
     33 C           1.6153   -1.6742    1.8315 C.3       1 ****        0.0000 
     34 C          -0.2032    0.4215   -0.8141 C.3       1 ****        0.0000 
     35 H           2.6883   -1.5135    1.9663 H         1 ****        0.0000 
     36 H           0.6552    0.9633   -1.2353 H         1 ****        0.0000 
     37 H           0.4860    0.6733   -6.8935 H         1 ****        0.0000 
     38 H           1.6037   -1.3272   -5.8620 H         1 ****        0.0000 
     39 H          -1.1177    1.9824   -5.5025 H         1 ****        0.0000 
     40 H           1.0501   -1.9182   -3.4934 H         1 ****        0.0000 
     41 H           0.3959   -3.6023   -0.6964 H         1 ****        0.0000 
     42 H          -0.8337   -3.6440    3.4155 H         1 ****        0.0000 
     43 H          -5.1694   -0.4505   -3.0055 H         1 ****        0.0000 
     44 H          -3.7843    1.0119    0.7934 H         1 ****        0.0000 
     45 H          -1.9961   -3.6700   -1.4024 H         1 ****        0.0000 
     46 H          -3.2168   -3.7056    2.7022 H         1 ****        0.0000 
     47 H          -4.9767   -2.8018   -2.1526 H         1 ****        0.0000 
     48 H          -3.6326   -1.2943    1.6350 H         1 ****        0.0000 
     49 H           1.6225   -3.6078    2.7732 H         1 ****        0.0000 
     50 H           2.0613   -3.6201    1.0593 H         1 ****        0.0000 
     51 H          -3.2418    3.6073   -1.8769 H         1 ****        0.0000 
     52 H          -3.3400    2.9529   -0.2260 H         1 ****        0.0000 
     53 H          -1.7890   -0.7463   -1.7585 H         1 ****        0.0000 
     54 H          -0.2356   -1.5694   -1.6017 H         1 ****        0.0000 
     55 H          -1.7234    1.6822   -2.4053 H         1 ****        0.0000 
     56 H          -0.3038    0.0148    1.2542 H         1 ****        0.0000 
     57 H           0.1567   -1.5719    3.4015 H         1 ****        0.0000 
     58 O           2.1778    0.7412    2.7757 O.3       1 ****        0.0000 
     59 C           2.5048    2.1543    2.9635 C.3       1 ****        0.0000 
     60 C           3.5846    2.3837    1.9127 C.3       1 ****        0.0000 
     61 H           3.9211    3.4239    1.9478 H         1 ****        0.0000 
     62 H           4.4420    1.7309    2.0954 H         1 ****        0.0000 
     63 H           3.1919    2.1751    0.9125 H         1 ****        0.0000 
     64 C           1.2760    3.0081    2.6674 C.3       1 ****        0.0000 
     65 H           0.8486    2.7311    1.6982 H         1 ****        0.0000 
     66 H           0.5103    2.8859    3.4342 H         1 ****        0.0000 
     67 H           1.5731    4.0606    2.6299 H         1 ****        0.0000 
     68 C           3.0559    2.3833    4.3670 C.3       1 ****        0.0000 
     69 H           2.2858    2.2226    5.1226 H         1 ****        0.0000 
     70 H           3.8948    1.7075    4.5568 H         1 ****        0.0000 
     71 H           3.4189    3.4125    4.4443 H         1 ****        0.0000 
     72 N          -0.9220    0.7833   -3.8375 N.3       1 ****        0.0000 
@<TRIPOS>BOND
     1    1   22 1    
     2    1   31 1    
     3    1   55 1    
     4    2   29 1    
     5    3    6 1    
     6    3    9 1    
     7    3   37 1    
     8    4   30 1    
     9    4   34 1    
    10    4   56 1    
    11    5   30 1    
    12    6   11 1    
    13    6   38 1    
    14    7   32 1    
    15    7   33 1    
    16    7   57 1    
    17    8   31 1    
    18    9   39 1    
    19    9   72 1    
    20   10   32 1    
    21   11   25 1    
    22   11   40 1    
    23   12   27 1    
    24   12   28 1    
    25   13   17 1    
    26   13   24 1    
    27   13   41 1    
    28   14   18 1    
    29   14   24 1    
    30   14   42 1    
    31   15   19 1    
    32   15   26 1    
    33   15   43 1    
    34   16   20 1    
    35   16   26 1    
    36   16   44 1    
    37   17   27 1    
    38   17   45 1    
    39   18   27 1    
    40   18   46 1    
    41   19   28 1    
    42   19   47 1    
    43   20   28 1    
    44   20   48 1    
    45   21   24 1    
    46   21   33 1    
    47   21   49 1    
    48   21   50 1    
    49   22   29 1    
    50   22   51 1    
    51   22   52 1    
    52   23   25 1    
    53   23   34 1    
    54   23   53 1    
    55   23   54 1    
    56   25   72 1    
    57   26   29 1    
    58   30   33 1    
    59   31   34 1    
    60   32   58 1    
    61   33   35 1    
    62   34   36 1    
    63   58   59 1    
    64   59   60 1    
    65   59   64 1    
    66   59   68 1    
    67   60   61 1    
    68   60   62 1    
    69   60   63 1    
    70   64   65 1    
    71   64   66 1    
    72   64   67 1    
    73   68   69 1    
    74   68   70 1    
    75   68   71 1    
@<TRIPOS>SUBSTRUCTURE
     1 ****        1 GROUP             0       ****    0 ROOT    
@<TRIPOS>MOLECULE
Cpd5-9-MEC-MRC
72   75    1
SMALL
USER_CHARGES


@<TRIPOS>ATOM
      1 N          -2.0940    2.0970   -0.7360 N.3       1 ****        0.0000 
      2 O          -5.4540    2.5810   -1.2120 O.3       1 ****        0.0000 
      3 C          -0.3170    5.8920    1.7890 C.3       1 ****        0.0000 
      4 N           0.5500   -0.2280   -0.1200 N.3       1 ****        0.0000 
      5 O           1.2630   -0.4850    2.0170 O.3       1 ****        0.0000 
      6 C           0.8850    5.8510    1.0840 C.3       1 ****        0.0000 
      7 N           3.3310   -2.0400    0.5470 N.3       1 ****        0.0000 
      8 O          -0.7900    0.8870   -2.1590 O.3       1 ****        0.0000 
      9 C          -1.0390    4.7100    1.9200 C.3       1 ****        0.0000 
     10 O           3.4580   -0.8720   -1.4070 O.3       1 ****        0.0000 
     11 C           1.3100    4.6400    0.5540 C.3       1 ****        0.0000 
     12 O          -4.1200   -3.5000    0.2880 O.3       1 ****        0.0000 
     13 C          -0.5640   -4.4110    0.2240 C.3       1 ****        0.0000 
     14 C          -0.9520   -2.8340    2.0010 C.3       1 ****        0.0000 
     15 C          -3.5780   -0.4530   -1.6640 C.3       1 ****        0.0000 
     16 C          -5.4290   -0.1110   -0.1450 C.3       1 ****        0.0000 
     17 C          -1.9320   -4.4550   -0.0510 C.3       1 ****        0.0000 
     18 C          -2.3150   -2.8630    1.7330 C.3       1 ****        0.0000 
     19 C          -3.4940   -1.7770   -1.2670 C.3       1 ****        0.0000 
     20 C          -5.3370   -1.4360    0.2760 C.3       1 ****        0.0000 
     21 C           1.4320   -3.3530    1.3600 C.3       1 ****        0.0000 
     22 C          -3.1140    2.4780   -1.6940 C.3       1 ****        0.0000 
     23 C           1.0120    2.1600    0.2330 C.3       1 ****        0.0000 
     24 C          -0.0550   -3.5700    1.2180 C.3       1 ****        0.0000 
     25 C           0.5250    3.4970    0.7460 C.3       1 ****        0.0000 
     26 C          -4.5180    0.4010   -1.0750 C.3       1 ****        0.0000 
     27 C          -2.7860   -3.6370    0.6760 C.3       1 ****        0.0000 
     28 C          -4.3310   -2.2420   -0.2510 C.3       1 ****        0.0000 
     29 C          -4.4770    1.8650   -1.3380 C.3       1 ****        0.0000 
     30 C           1.2000   -0.8900    0.8560 C.3       1 ****        0.0000 
     31 C          -1.0200    1.3390   -1.0380 C.3       1 ****        0.0000 
     32 C           3.9770   -1.2660   -0.3750 C.3       1 ****        0.0000 
     33 C           1.8910   -2.2030    0.4500 C.3       1 ****        0.0000 
     34 C          -0.0640    1.0640    0.1260 C.3       1 ****        0.0000 
     35 H           1.6550   -2.4430   -0.5920 H         1 ****        0.0000 
     36 H          -0.6160    1.0110    1.0680 H         1 ****        0.0000 
     37 H          -0.6920    6.8130    2.2200 H         1 ****        0.0000 
     38 H           1.4780    6.7500    0.9480 H         1 ****        0.0000 
     39 H          -1.9870    4.6980    2.4510 H         1 ****        0.0000 
     40 H           2.2400    4.5670   -0.0010 H         1 ****        0.0000 
     41 H           0.1190   -5.0080   -0.3750 H         1 ****        0.0000 
     42 H          -0.5700   -2.1940    2.7910 H         1 ****        0.0000 
     43 H          -2.8800   -0.0840   -2.4080 H         1 ****        0.0000 
     44 H          -6.1650    0.5550    0.2940 H         1 ****        0.0000 
     45 H          -2.3280   -5.0640   -0.8580 H         1 ****        0.0000 
     46 H          -3.0110   -2.2480    2.2960 H         1 ****        0.0000 
     47 H          -2.7380   -2.4310   -1.6880 H         1 ****        0.0000 
     48 H          -5.9870   -1.8310    1.0500 H         1 ****        0.0000 
     49 H           1.6840   -3.0990    2.3950 H         1 ****        0.0000 
     50 H           1.9900   -4.2500    1.0770 H         1 ****        0.0000 
     51 H          -2.7910    2.1390   -2.6830 H         1 ****        0.0000 
     52 H          -3.2380    3.5630   -1.7160 H         1 ****        0.0000 
     53 H           1.4980    2.2840   -0.7410 H         1 ****        0.0000 
     54 H           1.7730    1.7840    0.9270 H         1 ****        0.0000 
     55 H          -2.1260    2.4870    0.2020 H         1 ****        0.0000 
     56 H           0.6470   -0.5140   -1.0880 H         1 ****        0.0000 
     57 H           3.7560   -2.1070    1.4630 H         1 ****        0.0000 
     58 O           5.2400   -1.0350    0.0110 O.3       1 ****        0.0000 
     59 C           6.1380   -0.2210   -0.8070 C.3       1 ****        0.0000 
     60 C           7.4230   -0.2120    0.0140 C.3       1 ****        0.0000 
     61 H           8.1870    0.3750   -0.5030 H         1 ****        0.0000 
     62 H           7.2440    0.2320    0.9970 H         1 ****        0.0000 
     63 H           7.7960   -1.2310    0.1500 H         1 ****        0.0000 
     64 C           6.3700   -0.8910   -2.1580 C.3       1 ****        0.0000 
     65 H           6.7040   -1.9230   -2.0130 H         1 ****        0.0000 
     66 H           5.4630   -0.8890   -2.7630 H         1 ****        0.0000 
     67 H           7.1540   -0.3500   -2.6950 H         1 ****        0.0000 
     68 C           5.5810    1.1930   -0.9470 C.3       1 ****        0.0000 
     69 H           4.6760    1.2060   -1.5550 H         1 ****        0.0000 
     70 H           5.3590    1.6070    0.0420 H         1 ****        0.0000 
     71 H           6.3350    1.8270   -1.4220 H         1 ****        0.0000 
     72 N          -0.6350    3.5380    1.4130 N.3       1 ****        0.0000 
@<TRIPOS>BOND
     1    1   22 1    
     2    1   31 1    
     3    1   55 1    
     4    2   29 1    
     5    3    6 1    
     6    3    9 1    
     7    3   37 1    
     8    4   30 1    
     9    4   34 1    
    10    4   56 1    
    11    5   30 1    
    12    6   11 1    
    13    6   38 1    
    14    7   32 1    
    15    7   33 1    
    16    7   57 1    
    17    8   31 1    
    18    9   39 1    
    19    9   72 1    
    20   10   32 1    
    21   11   25 1    
    22   11   40 1    
    23   12   27 1    
    24   12   28 1    
    25   13   17 1    
    26   13   24 1    
    27   13   41 1    
    28   14   18 1    
    29   14   24 1    
    30   14   42 1    
    31   15   19 1    
    32   15   26 1    
    33   15   43 1    
    34   16   20 1    
    35   16   26 1    
    36   16   44 1    
    37   17   27 1    
    38   17   45 1    
    39   18   27 1    
    40   18   46 1    
    41   19   28 1    
    42   19   47 1    
    43   20   28 1    
    44   20   48 1    
    45   21   24 1    
    46   21   33 1    
    47   21   49 1    
    48   21   50 1    
    49   22   29 1    
    50   22   51 1    
    51   22   52 1    
    52   23   25 1    
    53   23   34 1    
    54   23   53 1    
    55   23   54 1    
    56   25   72 1    
    57   26   29 1    
    58   30   33 1    
    59   31   34 1    
    60   32   58 1    
    61   33   35 1    
    62   34   36 1    
    63   58   59 1    
    64   59   60 1    
    65   59   64 1    
    66   59   68 1    
    67   60   61 1    
    68   60   62 1    
    69   60   63 1    
    70   64   65 1    
    71   64   66 1    
    72   64   67 1    
    73   68   69 1    
    74   68   70 1    
    75   68   71 1    
@<TRIPOS>SUBSTRUCTURE
     1 ****        1 GROUP             0       ****    0 ROOT    
@<TRIPOS>MOLECULE
Cpd5-10
72   75    1
SMALL
USER_CHARGES


@<TRIPOS>ATOM
      1 N          -1.9173    1.8985   -1.5486 N.3       1 ****        0.0000 
      2 O          -5.1704    2.0694   -2.6381 O.3       1 ****        0.0000 
      3 C          -1.7265   -2.6942   -3.9874 C.3       1 ****        0.0000 
      4 N           0.2511   -0.1409    0.2792 N.3       1 ****        0.0000 
      5 O           2.1790   -1.2060   -0.3224 O.3       1 ****        0.0000 
      6 C          -0.4240   -2.9693   -3.5781 C.3       1 ****        0.0000 
      7 N           0.3932   -1.1293    2.8301 N.3       1 ****        0.0000 
      8 O          -1.3410    2.0477    0.6477 O.3       1 ****        0.0000 
      9 C          -2.2364   -1.4205   -3.7480 C.3       1 ****        0.0000 
     10 O           1.6747    0.6419    3.4723 O.3       1 ****        0.0000 
     11 C           0.3113   -1.9683   -2.9507 C.3       1 ****        0.0000 
     12 O          -4.1351   -3.5356    0.2544 O.3       1 ****        0.0000 
     13 C          -0.4930   -3.4938    0.0252 C.3       1 ****        0.0000 
     14 C          -1.1195   -3.9190    2.3086 C.3       1 ****        0.0000 
     15 C          -3.8267    0.1079    0.0658 C.3       1 ****        0.0000 
     16 C          -5.1200   -0.6868   -1.8143 C.3       1 ****        0.0000 
     17 C          -1.8226   -3.5576   -0.3596 C.3       1 ****        0.0000 
     18 C          -2.4664   -3.9875    1.9363 C.3       1 ****        0.0000 
     19 C          -3.7724   -1.1774    0.5747 C.3       1 ****        0.0000 
     20 C          -5.0529   -1.9883   -1.3222 C.3       1 ****        0.0000 
     21 C           1.2591   -3.1877    1.7879 C.3       1 ****        0.0000 
     22 C          -3.1873    2.5939   -1.4169 C.3       1 ****        0.0000 
     23 C           0.5200    0.4322   -2.1827 C.3       1 ****        0.0000 
     24 C          -0.1294   -3.6022    1.3732 C.3       1 ****        0.0000 
     25 C          -0.2757   -0.7142   -2.7592 C.3       1 ****        0.0000 
     26 C          -4.4662    0.3583   -1.1540 C.3       1 ****        0.0000 
     27 C          -2.8032   -3.7364    0.6142 C.3       1 ****        0.0000 
     28 C          -4.3334   -2.2298   -0.1547 C.3       1 ****        0.0000 
     29 C          -4.3741    1.6961   -1.7973 C.3       1 ****        0.0000 
     30 C           1.2946   -0.9722    0.4984 C.3       1 ****        0.0000 
     31 C          -1.1081    1.6623   -0.5000 C.3       1 ****        0.0000 
     32 C           0.6507   -0.0110    3.5694 C.3       1 ****        0.0000 
     33 C           1.3584   -1.6470    1.8875 C.3       1 ****        0.0000 
     34 C           0.2087    0.8979   -0.7499 C.3       1 ****        0.0000 
     35 H           2.3566   -1.3892    2.2567 H         1 ****        0.0000 
     36 H           0.9834    1.6426   -0.5116 H         1 ****        0.0000 
     37 H          -2.3357   -3.4424   -4.4830 H         1 ****        0.0000 
     38 H           0.0138   -3.9488   -3.7458 H         1 ****        0.0000 
     39 H          -3.2462   -1.1593   -4.0515 H         1 ****        0.0000 
     40 H           1.3295   -2.1346   -2.6121 H         1 ****        0.0000 
     41 H           0.2739   -3.2912   -0.7164 H         1 ****        0.0000 
     42 H          -0.8499   -4.0565    3.3535 H         1 ****        0.0000 
     43 H          -3.3477    0.9117    0.6165 H         1 ****        0.0000 
     44 H          -5.6309   -0.4802   -2.7506 H         1 ****        0.0000 
     45 H          -2.1164   -3.3861   -1.3910 H         1 ****        0.0000 
     46 H          -3.2479   -4.1532    2.6706 H         1 ****        0.0000 
     47 H          -3.2455   -1.3779    1.5023 H         1 ****        0.0000 
     48 H          -5.4970   -2.8210   -1.8588 H         1 ****        0.0000 
     49 H           1.5231   -3.6054    2.7634 H         1 ****        0.0000 
     50 H           2.0024   -3.5179    1.0573 H         1 ****        0.0000 
     51 H          -3.2204    3.4626   -2.0788 H         1 ****        0.0000 
     52 H          -3.2842    2.9349   -0.3824 H         1 ****        0.0000 
     53 H           1.5754    0.1620   -2.2004 H         1 ****        0.0000 
     54 H           0.3976    1.3055   -2.8338 H         1 ****        0.0000 
     55 H          -1.7982    1.3084   -2.3770 H         1 ****        0.0000 
     56 H          -0.3396    0.0553    1.0803 H         1 ****        0.0000 
     57 H          -0.4824   -1.6142    2.9825 H         1 ****        0.0000 
     58 O          -0.3818    0.2472    4.3863 O.3       1 ****        0.0000 
     59 C          -0.3981    1.4547    5.2153 C.3       1 ****        0.0000 
     60 C          -1.7499    1.3606    5.9133 C.3       1 ****        0.0000 
     61 H          -1.8825    2.2183    6.5777 H         1 ****        0.0000 
     62 H          -2.5602    1.3580    5.1781 H         1 ****        0.0000 
     63 H          -1.8103    0.4451    6.5074 H         1 ****        0.0000 
     64 C           0.7363    1.4052    6.2327 C.3       1 ****        0.0000 
     65 H           0.6938    0.4698    6.7995 H         1 ****        0.0000 
     66 H           1.7093    1.4874    5.7464 H         1 ****        0.0000 
     67 H           0.6220    2.2373    6.9350 H         1 ****        0.0000 
     68 C          -0.3369    2.6958    4.3308 C.3       1 ****        0.0000 
     69 H           0.6373    2.7958    3.8511 H         1 ****        0.0000 
     70 H          -1.1101    2.6489    3.5583 H         1 ****        0.0000 
     71 H          -0.5176    3.5805    4.9482 H         1 ****        0.0000 
     72 N          -1.5287   -0.4513   -3.1592 N.3       1 ****        0.0000 
@<TRIPOS>BOND
     1    1   22 1    
     2    1   31 1    
     3    1   55 1    
     4    2   29 1    
     5    3    6 1    
     6    3    9 1    
     7    3   37 1    
     8    4   30 1    
     9    4   34 1    
    10    4   56 1    
    11    5   30 1    
    12    6   11 1    
    13    6   38 1    
    14    7   32 1    
    15    7   33 1    
    16    7   57 1    
    17    8   31 1    
    18    9   39 1    
    19    9   72 1    
    20   10   32 1    
    21   11   25 1    
    22   11   40 1    
    23   12   27 1    
    24   12   28 1    
    25   13   17 1    
    26   13   24 1    
    27   13   41 1    
    28   14   18 1    
    29   14   24 1    
    30   14   42 1    
    31   15   19 1    
    32   15   26 1    
    33   15   43 1    
    34   16   20 1    
    35   16   26 1    
    36   16   44 1    
    37   17   27 1    
    38   17   45 1    
    39   18   27 1    
    40   18   46 1    
    41   19   28 1    
    42   19   47 1    
    43   20   28 1    
    44   20   48 1    
    45   21   24 1    
    46   21   33 1    
    47   21   49 1    
    48   21   50 1    
    49   22   29 1    
    50   22   51 1    
    51   22   52 1    
    52   23   25 1    
    53   23   34 1    
    54   23   53 1    
    55   23   54 1    
    56   25   72 1    
    57   26   29 1    
    58   30   33 1    
    59   31   34 1    
    60   32   58 1    
    61   33   35 1    
    62   34   36 1    
    63   58   59 1    
    64   59   60 1    
    65   59   64 1    
    66   59   68 1    
    67   60   61 1    
    68   60   62 1    
    69   60   63 1    
    70   64   65 1    
    71   64   66 1    
    72   64   67 1    
    73   68   69 1    
    74   68   70 1    
    75   68   71 1    
@<TRIPOS>SUBSTRUCTURE
     1 ****        1 GROUP             0       ****    0 ROOT    
